
---------- Begin Simulation Statistics ----------
simSeconds                                   0.004670                       # Number of seconds simulated (Second)
simTicks                                   4669788500                       # Number of ticks simulated (Tick)
finalTick                                  4669788500                       # Number of ticks from beginning of simulation (restored from checkpoints and never reset) (Tick)
simFreq                                  1000000000000                       # The number of ticks per simulated second ((Tick/Second))
hostSeconds                                     54.00                       # Real time elapsed on the host (Second)
hostTickRate                                 86481141                       # The number of ticks simulated per host second (ticks/s) ((Tick/Second))
hostMemory                                   17092832                       # Number of bytes of host memory used (Byte)
simInsts                                     10000002                       # Number of instructions simulated (Count)
simOps                                       10000002                       # Number of ops (including micro ops) simulated (Count)
hostInstRate                                   185192                       # Simulator instruction rate (inst/s) ((Count/Second))
hostOpRate                                     185192                       # Simulator op (including micro ops) rate (op/s) ((Count/Second))
system.bridge.power_state.pwrStateResidencyTicks::UNDEFINED   4669788500                       # Cumulative time (in ticks) in various power states (Tick)
system.clk_domain.clock                          1000                       # Clock period in ticks (Tick)
system.cpu.numCycles                          9339578                       # Number of cpu cycles simulated (Cycle)
system.cpu.numWorkItemsStarted                      0                       # Number of work items this cpu started (Count)
system.cpu.numWorkItemsCompleted                    0                       # Number of work items this cpu completed (Count)
system.cpu.instsAdded                        10532670                       # Number of instructions added to the IQ (excludes non-spec) (Count)
system.cpu.nonSpecInstsAdded                       33                       # Number of non-speculative instructions added to the IQ (Count)
system.cpu.instsIssued                       10343373                       # Number of instructions issued (Count)
system.cpu.squashedInstsIssued                   9689                       # Number of squashed instructions issued (Count)
system.cpu.squashedInstsExamined              1476446                       # Number of squashed instructions iterated over during squash; mainly for profiling (Count)
system.cpu.squashedOperandsExamined            377067                       # Number of squashed operands that are examined and possibly removed from graph (Count)
system.cpu.numIssuedDist::samples             9338344                       # Number of insts issued each cycle (Count)
system.cpu.numIssuedDist::mean               1.107624                       # Number of insts issued each cycle (Count)
system.cpu.numIssuedDist::stdev              2.064986                       # Number of insts issued each cycle (Count)
system.cpu.numIssuedDist::underflows                0      0.00%      0.00% # Number of insts issued each cycle (Count)
system.cpu.numIssuedDist::0                   6702639     71.78%     71.78% # Number of insts issued each cycle (Count)
system.cpu.numIssuedDist::1                    358706      3.84%     75.62% # Number of insts issued each cycle (Count)
system.cpu.numIssuedDist::2                    410066      4.39%     80.01% # Number of insts issued each cycle (Count)
system.cpu.numIssuedDist::3                    436590      4.68%     84.68% # Number of insts issued each cycle (Count)
system.cpu.numIssuedDist::4                    399015      4.27%     88.96% # Number of insts issued each cycle (Count)
system.cpu.numIssuedDist::5                    351602      3.77%     92.72% # Number of insts issued each cycle (Count)
system.cpu.numIssuedDist::6                    364240      3.90%     96.62% # Number of insts issued each cycle (Count)
system.cpu.numIssuedDist::7                    208633      2.23%     98.86% # Number of insts issued each cycle (Count)
system.cpu.numIssuedDist::8                    106853      1.14%    100.00% # Number of insts issued each cycle (Count)
system.cpu.numIssuedDist::overflows                 0      0.00%    100.00% # Number of insts issued each cycle (Count)
system.cpu.numIssuedDist::min_value                 0                       # Number of insts issued each cycle (Count)
system.cpu.numIssuedDist::max_value                 8                       # Number of insts issued each cycle (Count)
system.cpu.numIssuedDist::total               9338344                       # Number of insts issued each cycle (Count)
system.cpu.statFuBusy::No_OpClass                   0      0.00%      0.00% # attempts to use FU when none available (Count)
system.cpu.statFuBusy::IntAlu                  146488     70.55%     70.55% # attempts to use FU when none available (Count)
system.cpu.statFuBusy::IntMult                      0      0.00%     70.55% # attempts to use FU when none available (Count)
system.cpu.statFuBusy::IntDiv                       0      0.00%     70.55% # attempts to use FU when none available (Count)
system.cpu.statFuBusy::FloatAdd                     0      0.00%     70.55% # attempts to use FU when none available (Count)
system.cpu.statFuBusy::FloatCmp                     0      0.00%     70.55% # attempts to use FU when none available (Count)
system.cpu.statFuBusy::FloatCvt                     0      0.00%     70.55% # attempts to use FU when none available (Count)
system.cpu.statFuBusy::FloatMult                    0      0.00%     70.55% # attempts to use FU when none available (Count)
system.cpu.statFuBusy::FloatMultAcc                 0      0.00%     70.55% # attempts to use FU when none available (Count)
system.cpu.statFuBusy::FloatDiv                     0      0.00%     70.55% # attempts to use FU when none available (Count)
system.cpu.statFuBusy::FloatMisc                    0      0.00%     70.55% # attempts to use FU when none available (Count)
system.cpu.statFuBusy::FloatSqrt                    0      0.00%     70.55% # attempts to use FU when none available (Count)
system.cpu.statFuBusy::SimdAdd                      0      0.00%     70.55% # attempts to use FU when none available (Count)
system.cpu.statFuBusy::SimdAddAcc                   0      0.00%     70.55% # attempts to use FU when none available (Count)
system.cpu.statFuBusy::SimdAlu                      0      0.00%     70.55% # attempts to use FU when none available (Count)
system.cpu.statFuBusy::SimdCmp                      0      0.00%     70.55% # attempts to use FU when none available (Count)
system.cpu.statFuBusy::SimdCvt                      0      0.00%     70.55% # attempts to use FU when none available (Count)
system.cpu.statFuBusy::SimdMisc                     0      0.00%     70.55% # attempts to use FU when none available (Count)
system.cpu.statFuBusy::SimdMult                     0      0.00%     70.55% # attempts to use FU when none available (Count)
system.cpu.statFuBusy::SimdMultAcc                  0      0.00%     70.55% # attempts to use FU when none available (Count)
system.cpu.statFuBusy::SimdShift                    0      0.00%     70.55% # attempts to use FU when none available (Count)
system.cpu.statFuBusy::SimdShiftAcc                 0      0.00%     70.55% # attempts to use FU when none available (Count)
system.cpu.statFuBusy::SimdDiv                      0      0.00%     70.55% # attempts to use FU when none available (Count)
system.cpu.statFuBusy::SimdSqrt                     0      0.00%     70.55% # attempts to use FU when none available (Count)
system.cpu.statFuBusy::SimdFloatAdd                 0      0.00%     70.55% # attempts to use FU when none available (Count)
system.cpu.statFuBusy::SimdFloatAlu                 0      0.00%     70.55% # attempts to use FU when none available (Count)
system.cpu.statFuBusy::SimdFloatCmp                 0      0.00%     70.55% # attempts to use FU when none available (Count)
system.cpu.statFuBusy::SimdFloatCvt                 0      0.00%     70.55% # attempts to use FU when none available (Count)
system.cpu.statFuBusy::SimdFloatDiv                 0      0.00%     70.55% # attempts to use FU when none available (Count)
system.cpu.statFuBusy::SimdFloatMisc                0      0.00%     70.55% # attempts to use FU when none available (Count)
system.cpu.statFuBusy::SimdFloatMult                0      0.00%     70.55% # attempts to use FU when none available (Count)
system.cpu.statFuBusy::SimdFloatMultAcc             0      0.00%     70.55% # attempts to use FU when none available (Count)
system.cpu.statFuBusy::SimdFloatSqrt                0      0.00%     70.55% # attempts to use FU when none available (Count)
system.cpu.statFuBusy::SimdReduceAdd                0      0.00%     70.55% # attempts to use FU when none available (Count)
system.cpu.statFuBusy::SimdReduceAlu                0      0.00%     70.55% # attempts to use FU when none available (Count)
system.cpu.statFuBusy::SimdReduceCmp                0      0.00%     70.55% # attempts to use FU when none available (Count)
system.cpu.statFuBusy::SimdFloatReduceAdd            0      0.00%     70.55% # attempts to use FU when none available (Count)
system.cpu.statFuBusy::SimdFloatReduceCmp            0      0.00%     70.55% # attempts to use FU when none available (Count)
system.cpu.statFuBusy::SimdAes                      0      0.00%     70.55% # attempts to use FU when none available (Count)
system.cpu.statFuBusy::SimdAesMix                   0      0.00%     70.55% # attempts to use FU when none available (Count)
system.cpu.statFuBusy::SimdSha1Hash                 0      0.00%     70.55% # attempts to use FU when none available (Count)
system.cpu.statFuBusy::SimdSha1Hash2                0      0.00%     70.55% # attempts to use FU when none available (Count)
system.cpu.statFuBusy::SimdSha256Hash               0      0.00%     70.55% # attempts to use FU when none available (Count)
system.cpu.statFuBusy::SimdSha256Hash2              0      0.00%     70.55% # attempts to use FU when none available (Count)
system.cpu.statFuBusy::SimdShaSigma2                0      0.00%     70.55% # attempts to use FU when none available (Count)
system.cpu.statFuBusy::SimdShaSigma3                0      0.00%     70.55% # attempts to use FU when none available (Count)
system.cpu.statFuBusy::SimdPredAlu                  0      0.00%     70.55% # attempts to use FU when none available (Count)
system.cpu.statFuBusy::MemRead                  61126     29.44%     99.98% # attempts to use FU when none available (Count)
system.cpu.statFuBusy::MemWrite                    22      0.01%     99.99% # attempts to use FU when none available (Count)
system.cpu.statFuBusy::FloatMemRead                15      0.01%    100.00% # attempts to use FU when none available (Count)
system.cpu.statFuBusy::FloatMemWrite                0      0.00%    100.00% # attempts to use FU when none available (Count)
system.cpu.statFuBusy::IprAccess                    0      0.00%    100.00% # attempts to use FU when none available (Count)
system.cpu.statFuBusy::InstPrefetch                 0      0.00%    100.00% # attempts to use FU when none available (Count)
system.cpu.statFuBusy::FMAMul                       0      0.00%    100.00% # attempts to use FU when none available (Count)
system.cpu.statFuBusy::FMAAcc                       0      0.00%    100.00% # attempts to use FU when none available (Count)
system.cpu.statIssuedInstType_0::No_OpClass           32      0.00%      0.00% # Number of instructions issued per FU type, per thread (Count)
system.cpu.statIssuedInstType_0::IntAlu       8417685     81.38%     81.38% # Number of instructions issued per FU type, per thread (Count)
system.cpu.statIssuedInstType_0::IntMult            0      0.00%     81.38% # Number of instructions issued per FU type, per thread (Count)
system.cpu.statIssuedInstType_0::IntDiv             0      0.00%     81.38% # Number of instructions issued per FU type, per thread (Count)
system.cpu.statIssuedInstType_0::FloatAdd            0      0.00%     81.38% # Number of instructions issued per FU type, per thread (Count)
system.cpu.statIssuedInstType_0::FloatCmp            0      0.00%     81.38% # Number of instructions issued per FU type, per thread (Count)
system.cpu.statIssuedInstType_0::FloatCvt            0      0.00%     81.38% # Number of instructions issued per FU type, per thread (Count)
system.cpu.statIssuedInstType_0::FloatMult            0      0.00%     81.38% # Number of instructions issued per FU type, per thread (Count)
system.cpu.statIssuedInstType_0::FloatMultAcc            0      0.00%     81.38% # Number of instructions issued per FU type, per thread (Count)
system.cpu.statIssuedInstType_0::FloatDiv            0      0.00%     81.38% # Number of instructions issued per FU type, per thread (Count)
system.cpu.statIssuedInstType_0::FloatMisc            0      0.00%     81.38% # Number of instructions issued per FU type, per thread (Count)
system.cpu.statIssuedInstType_0::FloatSqrt            0      0.00%     81.38% # Number of instructions issued per FU type, per thread (Count)
system.cpu.statIssuedInstType_0::SimdAdd            0      0.00%     81.38% # Number of instructions issued per FU type, per thread (Count)
system.cpu.statIssuedInstType_0::SimdAddAcc            0      0.00%     81.38% # Number of instructions issued per FU type, per thread (Count)
system.cpu.statIssuedInstType_0::SimdAlu            0      0.00%     81.38% # Number of instructions issued per FU type, per thread (Count)
system.cpu.statIssuedInstType_0::SimdCmp            0      0.00%     81.38% # Number of instructions issued per FU type, per thread (Count)
system.cpu.statIssuedInstType_0::SimdCvt            0      0.00%     81.38% # Number of instructions issued per FU type, per thread (Count)
system.cpu.statIssuedInstType_0::SimdMisc            0      0.00%     81.38% # Number of instructions issued per FU type, per thread (Count)
system.cpu.statIssuedInstType_0::SimdMult            0      0.00%     81.38% # Number of instructions issued per FU type, per thread (Count)
system.cpu.statIssuedInstType_0::SimdMultAcc            0      0.00%     81.38% # Number of instructions issued per FU type, per thread (Count)
system.cpu.statIssuedInstType_0::SimdShift            0      0.00%     81.38% # Number of instructions issued per FU type, per thread (Count)
system.cpu.statIssuedInstType_0::SimdShiftAcc            0      0.00%     81.38% # Number of instructions issued per FU type, per thread (Count)
system.cpu.statIssuedInstType_0::SimdDiv            0      0.00%     81.38% # Number of instructions issued per FU type, per thread (Count)
system.cpu.statIssuedInstType_0::SimdSqrt            0      0.00%     81.38% # Number of instructions issued per FU type, per thread (Count)
system.cpu.statIssuedInstType_0::SimdFloatAdd            0      0.00%     81.38% # Number of instructions issued per FU type, per thread (Count)
system.cpu.statIssuedInstType_0::SimdFloatAlu            0      0.00%     81.38% # Number of instructions issued per FU type, per thread (Count)
system.cpu.statIssuedInstType_0::SimdFloatCmp            0      0.00%     81.38% # Number of instructions issued per FU type, per thread (Count)
system.cpu.statIssuedInstType_0::SimdFloatCvt            0      0.00%     81.38% # Number of instructions issued per FU type, per thread (Count)
system.cpu.statIssuedInstType_0::SimdFloatDiv            0      0.00%     81.38% # Number of instructions issued per FU type, per thread (Count)
system.cpu.statIssuedInstType_0::SimdFloatMisc            0      0.00%     81.38% # Number of instructions issued per FU type, per thread (Count)
system.cpu.statIssuedInstType_0::SimdFloatMult            0      0.00%     81.38% # Number of instructions issued per FU type, per thread (Count)
system.cpu.statIssuedInstType_0::SimdFloatMultAcc            0      0.00%     81.38% # Number of instructions issued per FU type, per thread (Count)
system.cpu.statIssuedInstType_0::SimdFloatSqrt            0      0.00%     81.38% # Number of instructions issued per FU type, per thread (Count)
system.cpu.statIssuedInstType_0::SimdReduceAdd            0      0.00%     81.38% # Number of instructions issued per FU type, per thread (Count)
system.cpu.statIssuedInstType_0::SimdReduceAlu            0      0.00%     81.38% # Number of instructions issued per FU type, per thread (Count)
system.cpu.statIssuedInstType_0::SimdReduceCmp            0      0.00%     81.38% # Number of instructions issued per FU type, per thread (Count)
system.cpu.statIssuedInstType_0::SimdFloatReduceAdd            0      0.00%     81.38% # Number of instructions issued per FU type, per thread (Count)
system.cpu.statIssuedInstType_0::SimdFloatReduceCmp            0      0.00%     81.38% # Number of instructions issued per FU type, per thread (Count)
system.cpu.statIssuedInstType_0::SimdAes            0      0.00%     81.38% # Number of instructions issued per FU type, per thread (Count)
system.cpu.statIssuedInstType_0::SimdAesMix            0      0.00%     81.38% # Number of instructions issued per FU type, per thread (Count)
system.cpu.statIssuedInstType_0::SimdSha1Hash            0      0.00%     81.38% # Number of instructions issued per FU type, per thread (Count)
system.cpu.statIssuedInstType_0::SimdSha1Hash2            0      0.00%     81.38% # Number of instructions issued per FU type, per thread (Count)
system.cpu.statIssuedInstType_0::SimdSha256Hash            0      0.00%     81.38% # Number of instructions issued per FU type, per thread (Count)
system.cpu.statIssuedInstType_0::SimdSha256Hash2            0      0.00%     81.38% # Number of instructions issued per FU type, per thread (Count)
system.cpu.statIssuedInstType_0::SimdShaSigma2            0      0.00%     81.38% # Number of instructions issued per FU type, per thread (Count)
system.cpu.statIssuedInstType_0::SimdShaSigma3            0      0.00%     81.38% # Number of instructions issued per FU type, per thread (Count)
system.cpu.statIssuedInstType_0::SimdPredAlu            0      0.00%     81.38% # Number of instructions issued per FU type, per thread (Count)
system.cpu.statIssuedInstType_0::MemRead      1410239     13.63%     95.02% # Number of instructions issued per FU type, per thread (Count)
system.cpu.statIssuedInstType_0::MemWrite       515385      4.98%    100.00% # Number of instructions issued per FU type, per thread (Count)
system.cpu.statIssuedInstType_0::FloatMemRead           32      0.00%    100.00% # Number of instructions issued per FU type, per thread (Count)
system.cpu.statIssuedInstType_0::FloatMemWrite            0      0.00%    100.00% # Number of instructions issued per FU type, per thread (Count)
system.cpu.statIssuedInstType_0::IprAccess            0      0.00%    100.00% # Number of instructions issued per FU type, per thread (Count)
system.cpu.statIssuedInstType_0::InstPrefetch            0      0.00%    100.00% # Number of instructions issued per FU type, per thread (Count)
system.cpu.statIssuedInstType_0::FMAMul             0      0.00%    100.00% # Number of instructions issued per FU type, per thread (Count)
system.cpu.statIssuedInstType_0::FMAAcc             0      0.00%    100.00% # Number of instructions issued per FU type, per thread (Count)
system.cpu.statIssuedInstType_0::total       10343373                       # Number of instructions issued per FU type, per thread (Count)
system.cpu.issueRate                         1.107478                       # Inst issue rate ((Count/Cycle))
system.cpu.fuBusy                              207651                       # FU busy when requested (Count)
system.cpu.fuBusyRate                        0.020076                       # FU busy rate (busy events/executed inst) ((Count/Count))
system.cpu.intInstQueueReads                 30242345                       # Number of integer instruction queue reads (Count)
system.cpu.intInstQueueWrites                12013890                       # Number of integer instruction queue writes (Count)
system.cpu.intInstQueueWakeupAccesses        10231919                       # Number of integer instruction queue wakeup accesses (Count)
system.cpu.fpInstQueueReads                        79                       # Number of floating instruction queue reads (Count)
system.cpu.fpInstQueueWrites                       32                       # Number of floating instruction queue writes (Count)
system.cpu.fpInstQueueWakeupAccesses               32                       # Number of floating instruction queue wakeup accesses (Count)
system.cpu.vecInstQueueReads                        0                       # Number of vector instruction queue reads (Count)
system.cpu.vecInstQueueWrites                       0                       # Number of vector instruction queue writes (Count)
system.cpu.vecInstQueueWakeupAccesses               0                       # Number of vector instruction queue wakeup accesses (Count)
system.cpu.intAluAccesses                    10550945                       # Number of integer alu accesses (Count)
system.cpu.fpAluAccesses                           47                       # Number of floating point alu accesses (Count)
system.cpu.vecAluAccesses                           0                       # Number of vector alu accesses (Count)
system.cpu.numInsts                          10256907                       # Number of executed instructions (Count)
system.cpu.numLoadInsts                       1396523                       # Number of load instructions executed (Count)
system.cpu.numSquashedInsts                     84449                       # Number of squashed instructions skipped in execute (Count)
system.cpu.numSwp                                   0                       # Number of swp insts executed (Count)
system.cpu.numNop                             1096678                       # Number of nop insts executed (Count)
system.cpu.numRefs                            1887759                       # Number of memory reference insts executed (Count)
system.cpu.numBranches                        2060591                       # Number of branches executed (Count)
system.cpu.numStoreInsts                       491236                       # Number of stores executed (Count)
system.cpu.numRate                           1.098220                       # Inst execution rate ((Count/Cycle))
system.cpu.timesIdled                              10                       # Number of times that the entire CPU went into an idle state and unscheduled itself (Count)
system.cpu.idleCycles                            1234                       # Total number of cycles that the CPU has spent unscheduled due to idling (Cycle)
system.cpu.committedInsts                    10000002                       # Number of Instructions Simulated (Count)
system.cpu.committedOps                      10000002                       # Number of Ops (including micro ops) Simulated (Count)
system.cpu.cpi                               0.933958                       # CPI: Cycles Per Instruction ((Cycle/Count))
system.cpu.totalCpi                          0.933958                       # CPI: Total CPI of All Threads ((Cycle/Count))
system.cpu.ipc                               1.070712                       # IPC: Instructions Per Cycle ((Count/Cycle))
system.cpu.totalIpc                          1.070712                       # IPC: Total IPC of All Threads ((Count/Cycle))
system.cpu.intRegfileReads                   13630077                       # Number of integer regfile reads (Count)
system.cpu.intRegfileWrites                   7685803                       # Number of integer regfile writes (Count)
system.cpu.fpRegfileReads                          32                       # Number of floating regfile reads (Count)
system.cpu.fpRegfileWrites                         32                       # Number of floating regfile writes (Count)
system.cpu.miscRegfileReads                  94568399                       # number of misc regfile reads (Count)
system.cpu.miscRegfileWrites                       59                       # number of misc regfile writes (Count)
system.cpu.lastCommitTick                  4669788500                       # The last tick to commit an instruction (Count)
system.cpu.MemDepUnit__0.insertedLoads        1442856                       # Number of loads inserted to the mem dependence unit. (Count)
system.cpu.MemDepUnit__0.insertedStores        530120                       # Number of stores inserted to the mem dependence unit. (Count)
system.cpu.MemDepUnit__0.conflictingLoads       292684                       # Number of conflicting loads. (Count)
system.cpu.MemDepUnit__0.conflictingStores        70806                       # Number of conflicting stores. (Count)
system.cpu.MemDepUnit__1.insertedLoads              0                       # Number of loads inserted to the mem dependence unit. (Count)
system.cpu.MemDepUnit__1.insertedStores             0                       # Number of stores inserted to the mem dependence unit. (Count)
system.cpu.MemDepUnit__1.conflictingLoads            0                       # Number of conflicting loads. (Count)
system.cpu.MemDepUnit__1.conflictingStores            0                       # Number of conflicting stores. (Count)
system.cpu.MemDepUnit__2.insertedLoads              0                       # Number of loads inserted to the mem dependence unit. (Count)
system.cpu.MemDepUnit__2.insertedStores             0                       # Number of stores inserted to the mem dependence unit. (Count)
system.cpu.MemDepUnit__2.conflictingLoads            0                       # Number of conflicting loads. (Count)
system.cpu.MemDepUnit__2.conflictingStores            0                       # Number of conflicting stores. (Count)
system.cpu.MemDepUnit__3.insertedLoads              0                       # Number of loads inserted to the mem dependence unit. (Count)
system.cpu.MemDepUnit__3.insertedStores             0                       # Number of stores inserted to the mem dependence unit. (Count)
system.cpu.MemDepUnit__3.conflictingLoads            0                       # Number of conflicting loads. (Count)
system.cpu.MemDepUnit__3.conflictingStores            0                       # Number of conflicting stores. (Count)
system.cpu.branchPred.lookups                 2819067                       # Number of BP lookups (Count)
system.cpu.branchPred.condPredicted           2624017                       # Number of conditional branches predicted (Count)
system.cpu.branchPred.condIncorrect             29968                       # Number of conditional branches incorrect (Count)
system.cpu.branchPred.BTBLookups              1258865                       # Number of BTB lookups (Count)
system.cpu.branchPred.BTBHits                 1258816                       # Number of BTB hits (Count)
system.cpu.branchPred.BTBHitRatio            0.999961                       # BTB Hit Ratio (Ratio)
system.cpu.branchPred.RASUsed                       0                       # Number of times the RAS was used to get a target. (Count)
system.cpu.branchPred.RASIncorrect                  0                       # Number of incorrect RAS predictions. (Count)
system.cpu.branchPred.indirectLookups              20                       # Number of indirect predictor lookups. (Count)
system.cpu.branchPred.indirectHits                 20                       # Number of indirect target hits. (Count)
system.cpu.branchPred.indirectMisses                0                       # Number of indirect misses. (Count)
system.cpu.branchPred.indirectMispredicted            0                       # Number of mispredicted indirect branches. (Count)
system.cpu.branchPred.loop_predictor.correct      1100637                       # Number of times the loop predictor is the provider and the prediction is correct (Count)
system.cpu.branchPred.loop_predictor.wrong       606265                       # Number of times the loop predictor is the provider and the prediction is wrong (Count)
system.cpu.branchPred.tage.longestMatchProviderCorrect      1072215                       # Number of times TAGE Longest Match is the provider and the prediction is correct (Count)
system.cpu.branchPred.tage.altMatchProviderCorrect        14143                       # Number of times TAGE Alt Match is the provider and the prediction is correct (Count)
system.cpu.branchPred.tage.bimodalAltMatchProviderCorrect          214                       # Number of times TAGE Alt Match is the bimodal and it is the provider and the prediction is correct (Count)
system.cpu.branchPred.tage.bimodalProviderCorrect       598848                       # Number of times there are no hits on the TAGE tables and the bimodal prediction is correct (Count)
system.cpu.branchPred.tage.longestMatchProviderWrong        19787                       # Number of times TAGE Longest Match is the provider and the prediction is wrong (Count)
system.cpu.branchPred.tage.altMatchProviderWrong         1550                       # Number of times TAGE Alt Match is the provider and the prediction is wrong (Count)
system.cpu.branchPred.tage.bimodalAltMatchProviderWrong           36                       # Number of times TAGE Alt Match is the bimodal and it is the provider and the prediction is wrong (Count)
system.cpu.branchPred.tage.bimodalProviderWrong          109                       # Number of times there are no hits on the TAGE tables and the bimodal prediction is wrong (Count)
system.cpu.branchPred.tage.altMatchProviderWouldHaveHit          853                       # Number of times TAGE Longest Match is the provider, the prediction is wrong and Alt Match prediction was correct (Count)
system.cpu.branchPred.tage.longestMatchProviderWouldHaveHit          948                       # Number of times TAGE Alt Match is the provider, the prediction is wrong and Longest Match prediction was correct (Count)
system.cpu.branchPred.tage.longestMatchProvider::0            0                       # TAGE provider for longest match (Count)
system.cpu.branchPred.tage.longestMatchProvider::1       276950                       # TAGE provider for longest match (Count)
system.cpu.branchPred.tage.longestMatchProvider::2       158417                       # TAGE provider for longest match (Count)
system.cpu.branchPred.tage.longestMatchProvider::3        41450                       # TAGE provider for longest match (Count)
system.cpu.branchPred.tage.longestMatchProvider::4        15553                       # TAGE provider for longest match (Count)
system.cpu.branchPred.tage.longestMatchProvider::5        67660                       # TAGE provider for longest match (Count)
system.cpu.branchPred.tage.longestMatchProvider::6       136490                       # TAGE provider for longest match (Count)
system.cpu.branchPred.tage.longestMatchProvider::7       116573                       # TAGE provider for longest match (Count)
system.cpu.branchPred.tage.longestMatchProvider::8       163494                       # TAGE provider for longest match (Count)
system.cpu.branchPred.tage.longestMatchProvider::9       103030                       # TAGE provider for longest match (Count)
system.cpu.branchPred.tage.longestMatchProvider::10        25923                       # TAGE provider for longest match (Count)
system.cpu.branchPred.tage.longestMatchProvider::11         1973                       # TAGE provider for longest match (Count)
system.cpu.branchPred.tage.longestMatchProvider::12          182                       # TAGE provider for longest match (Count)
system.cpu.branchPred.tage.altMatchProvider::0       365048                       # TAGE provider for alt match (Count)
system.cpu.branchPred.tage.altMatchProvider::1        93727                       # TAGE provider for alt match (Count)
system.cpu.branchPred.tage.altMatchProvider::2        49388                       # TAGE provider for alt match (Count)
system.cpu.branchPred.tage.altMatchProvider::3        44557                       # TAGE provider for alt match (Count)
system.cpu.branchPred.tage.altMatchProvider::4        27737                       # TAGE provider for alt match (Count)
system.cpu.branchPred.tage.altMatchProvider::5       126884                       # TAGE provider for alt match (Count)
system.cpu.branchPred.tage.altMatchProvider::6       119603                       # TAGE provider for alt match (Count)
system.cpu.branchPred.tage.altMatchProvider::7       161514                       # TAGE provider for alt match (Count)
system.cpu.branchPred.tage.altMatchProvider::8        97069                       # TAGE provider for alt match (Count)
system.cpu.branchPred.tage.altMatchProvider::9        20818                       # TAGE provider for alt match (Count)
system.cpu.branchPred.tage.altMatchProvider::10         1310                       # TAGE provider for alt match (Count)
system.cpu.branchPred.tage.altMatchProvider::11           40                       # TAGE provider for alt match (Count)
system.cpu.branchPred.tage.altMatchProvider::12            0                       # TAGE provider for alt match (Count)
system.cpu.commit.commitSquashedInsts         1629207                       # The number of squashed insts skipped by commit (Count)
system.cpu.commit.commitNonSpecStalls              33                       # The number of times commit has been forced to stall to communicate backwards (Count)
system.cpu.commit.branchMispredicts             23688                       # The number of times a branch was mispredicted (Count)
system.cpu.commit.numCommittedDist::samples      9041613                       # Number of insts commited each cycle (Count)
system.cpu.commit.numCommittedDist::mean     1.105998                       # Number of insts commited each cycle (Count)
system.cpu.commit.numCommittedDist::stdev     2.288804                       # Number of insts commited each cycle (Count)
system.cpu.commit.numCommittedDist::underflows            0      0.00%      0.00% # Number of insts commited each cycle (Count)
system.cpu.commit.numCommittedDist::0         7233488     80.00%     80.00% # Number of insts commited each cycle (Count)
system.cpu.commit.numCommittedDist::1           96377      1.07%     81.07% # Number of insts commited each cycle (Count)
system.cpu.commit.numCommittedDist::2           30132      0.33%     81.40% # Number of insts commited each cycle (Count)
system.cpu.commit.numCommittedDist::3           48630      0.54%     81.94% # Number of insts commited each cycle (Count)
system.cpu.commit.numCommittedDist::4           44196      0.49%     82.43% # Number of insts commited each cycle (Count)
system.cpu.commit.numCommittedDist::5           12053      0.13%     82.56% # Number of insts commited each cycle (Count)
system.cpu.commit.numCommittedDist::6         1576737     17.44%    100.00% # Number of insts commited each cycle (Count)
system.cpu.commit.numCommittedDist::overflows            0      0.00%    100.00% # Number of insts commited each cycle (Count)
system.cpu.commit.numCommittedDist::min_value            0                       # Number of insts commited each cycle (Count)
system.cpu.commit.numCommittedDist::max_value            6                       # Number of insts commited each cycle (Count)
system.cpu.commit.numCommittedDist::total      9041613                       # Number of insts commited each cycle (Count)
system.cpu.commit.instsCommitted             10000002                       # Number of instructions committed (Count)
system.cpu.commit.opsCommitted               10000002                       # Number of ops (including micro ops) committed (Count)
system.cpu.commit.memRefs                     1708618                       # Number of memory references committed (Count)
system.cpu.commit.loads                       1260399                       # Number of loads committed (Count)
system.cpu.commit.amos                              0                       # Number of atomic instructions committed (Count)
system.cpu.commit.membars                           0                       # Number of memory barriers committed (Count)
system.cpu.commit.branches                    1835430                       # Number of branches committed (Count)
system.cpu.commit.vectorInstructions                0                       # Number of committed Vector instructions. (Count)
system.cpu.commit.floating                         32                       # Number of committed floating point instructions. (Count)
system.cpu.commit.integer                     9871474                       # Number of committed integer instructions. (Count)
system.cpu.commit.functionCalls                     0                       # Number of function calls committed. (Count)
system.cpu.commit.committedInstType_0::No_OpClass           32      0.00%      0.00% # Class of committed instruction (Count)
system.cpu.commit.committedInstType_0::IntAlu      8291352     82.91%     82.91% # Class of committed instruction (Count)
system.cpu.commit.committedInstType_0::IntMult            0      0.00%     82.91% # Class of committed instruction (Count)
system.cpu.commit.committedInstType_0::IntDiv            0      0.00%     82.91% # Class of committed instruction (Count)
system.cpu.commit.committedInstType_0::FloatAdd            0      0.00%     82.91% # Class of committed instruction (Count)
system.cpu.commit.committedInstType_0::FloatCmp            0      0.00%     82.91% # Class of committed instruction (Count)
system.cpu.commit.committedInstType_0::FloatCvt            0      0.00%     82.91% # Class of committed instruction (Count)
system.cpu.commit.committedInstType_0::FloatMult            0      0.00%     82.91% # Class of committed instruction (Count)
system.cpu.commit.committedInstType_0::FloatMultAcc            0      0.00%     82.91% # Class of committed instruction (Count)
system.cpu.commit.committedInstType_0::FloatDiv            0      0.00%     82.91% # Class of committed instruction (Count)
system.cpu.commit.committedInstType_0::FloatMisc            0      0.00%     82.91% # Class of committed instruction (Count)
system.cpu.commit.committedInstType_0::FloatSqrt            0      0.00%     82.91% # Class of committed instruction (Count)
system.cpu.commit.committedInstType_0::SimdAdd            0      0.00%     82.91% # Class of committed instruction (Count)
system.cpu.commit.committedInstType_0::SimdAddAcc            0      0.00%     82.91% # Class of committed instruction (Count)
system.cpu.commit.committedInstType_0::SimdAlu            0      0.00%     82.91% # Class of committed instruction (Count)
system.cpu.commit.committedInstType_0::SimdCmp            0      0.00%     82.91% # Class of committed instruction (Count)
system.cpu.commit.committedInstType_0::SimdCvt            0      0.00%     82.91% # Class of committed instruction (Count)
system.cpu.commit.committedInstType_0::SimdMisc            0      0.00%     82.91% # Class of committed instruction (Count)
system.cpu.commit.committedInstType_0::SimdMult            0      0.00%     82.91% # Class of committed instruction (Count)
system.cpu.commit.committedInstType_0::SimdMultAcc            0      0.00%     82.91% # Class of committed instruction (Count)
system.cpu.commit.committedInstType_0::SimdShift            0      0.00%     82.91% # Class of committed instruction (Count)
system.cpu.commit.committedInstType_0::SimdShiftAcc            0      0.00%     82.91% # Class of committed instruction (Count)
system.cpu.commit.committedInstType_0::SimdDiv            0      0.00%     82.91% # Class of committed instruction (Count)
system.cpu.commit.committedInstType_0::SimdSqrt            0      0.00%     82.91% # Class of committed instruction (Count)
system.cpu.commit.committedInstType_0::SimdFloatAdd            0      0.00%     82.91% # Class of committed instruction (Count)
system.cpu.commit.committedInstType_0::SimdFloatAlu            0      0.00%     82.91% # Class of committed instruction (Count)
system.cpu.commit.committedInstType_0::SimdFloatCmp            0      0.00%     82.91% # Class of committed instruction (Count)
system.cpu.commit.committedInstType_0::SimdFloatCvt            0      0.00%     82.91% # Class of committed instruction (Count)
system.cpu.commit.committedInstType_0::SimdFloatDiv            0      0.00%     82.91% # Class of committed instruction (Count)
system.cpu.commit.committedInstType_0::SimdFloatMisc            0      0.00%     82.91% # Class of committed instruction (Count)
system.cpu.commit.committedInstType_0::SimdFloatMult            0      0.00%     82.91% # Class of committed instruction (Count)
system.cpu.commit.committedInstType_0::SimdFloatMultAcc            0      0.00%     82.91% # Class of committed instruction (Count)
system.cpu.commit.committedInstType_0::SimdFloatSqrt            0      0.00%     82.91% # Class of committed instruction (Count)
system.cpu.commit.committedInstType_0::SimdReduceAdd            0      0.00%     82.91% # Class of committed instruction (Count)
system.cpu.commit.committedInstType_0::SimdReduceAlu            0      0.00%     82.91% # Class of committed instruction (Count)
system.cpu.commit.committedInstType_0::SimdReduceCmp            0      0.00%     82.91% # Class of committed instruction (Count)
system.cpu.commit.committedInstType_0::SimdFloatReduceAdd            0      0.00%     82.91% # Class of committed instruction (Count)
system.cpu.commit.committedInstType_0::SimdFloatReduceCmp            0      0.00%     82.91% # Class of committed instruction (Count)
system.cpu.commit.committedInstType_0::SimdAes            0      0.00%     82.91% # Class of committed instruction (Count)
system.cpu.commit.committedInstType_0::SimdAesMix            0      0.00%     82.91% # Class of committed instruction (Count)
system.cpu.commit.committedInstType_0::SimdSha1Hash            0      0.00%     82.91% # Class of committed instruction (Count)
system.cpu.commit.committedInstType_0::SimdSha1Hash2            0      0.00%     82.91% # Class of committed instruction (Count)
system.cpu.commit.committedInstType_0::SimdSha256Hash            0      0.00%     82.91% # Class of committed instruction (Count)
system.cpu.commit.committedInstType_0::SimdSha256Hash2            0      0.00%     82.91% # Class of committed instruction (Count)
system.cpu.commit.committedInstType_0::SimdShaSigma2            0      0.00%     82.91% # Class of committed instruction (Count)
system.cpu.commit.committedInstType_0::SimdShaSigma3            0      0.00%     82.91% # Class of committed instruction (Count)
system.cpu.commit.committedInstType_0::SimdPredAlu            0      0.00%     82.91% # Class of committed instruction (Count)
system.cpu.commit.committedInstType_0::MemRead      1260367     12.60%     95.52% # Class of committed instruction (Count)
system.cpu.commit.committedInstType_0::MemWrite       448219      4.48%    100.00% # Class of committed instruction (Count)
system.cpu.commit.committedInstType_0::FloatMemRead           32      0.00%    100.00% # Class of committed instruction (Count)
system.cpu.commit.committedInstType_0::FloatMemWrite            0      0.00%    100.00% # Class of committed instruction (Count)
system.cpu.commit.committedInstType_0::IprAccess            0      0.00%    100.00% # Class of committed instruction (Count)
system.cpu.commit.committedInstType_0::InstPrefetch            0      0.00%    100.00% # Class of committed instruction (Count)
system.cpu.commit.committedInstType_0::FMAMul            0      0.00%    100.00% # Class of committed instruction (Count)
system.cpu.commit.committedInstType_0::FMAAcc            0      0.00%    100.00% # Class of committed instruction (Count)
system.cpu.commit.committedInstType_0::total     10000002                       # Class of committed instruction (Count)
system.cpu.commit.commitEligibleSamples       1576737                       # number cycles where commit BW limit reached (Cycle)
system.cpu.dcache.demandHits::cpu.data         940811                       # number of demand (read+write) hits (Count)
system.cpu.dcache.demandHits::total            940811                       # number of demand (read+write) hits (Count)
system.cpu.dcache.overallHits::cpu.data        940811                       # number of overall hits (Count)
system.cpu.dcache.overallHits::total           940811                       # number of overall hits (Count)
system.cpu.dcache.demandMisses::cpu.data       396591                       # number of demand (read+write) misses (Count)
system.cpu.dcache.demandMisses::total          396591                       # number of demand (read+write) misses (Count)
system.cpu.dcache.overallMisses::cpu.data       396591                       # number of overall misses (Count)
system.cpu.dcache.overallMisses::total         396591                       # number of overall misses (Count)
system.cpu.dcache.demandMissLatency::cpu.data  28146330000                       # number of demand (read+write) miss ticks (Tick)
system.cpu.dcache.demandMissLatency::total  28146330000                       # number of demand (read+write) miss ticks (Tick)
system.cpu.dcache.overallMissLatency::cpu.data  28146330000                       # number of overall miss ticks (Tick)
system.cpu.dcache.overallMissLatency::total  28146330000                       # number of overall miss ticks (Tick)
system.cpu.dcache.demandAccesses::cpu.data      1337402                       # number of demand (read+write) accesses (Count)
system.cpu.dcache.demandAccesses::total       1337402                       # number of demand (read+write) accesses (Count)
system.cpu.dcache.overallAccesses::cpu.data      1337402                       # number of overall (read+write) accesses (Count)
system.cpu.dcache.overallAccesses::total      1337402                       # number of overall (read+write) accesses (Count)
system.cpu.dcache.demandMissRate::cpu.data     0.296538                       # miss rate for demand accesses (Ratio)
system.cpu.dcache.demandMissRate::total      0.296538                       # miss rate for demand accesses (Ratio)
system.cpu.dcache.overallMissRate::cpu.data     0.296538                       # miss rate for overall accesses (Ratio)
system.cpu.dcache.overallMissRate::total     0.296538                       # miss rate for overall accesses (Ratio)
system.cpu.dcache.demandAvgMissLatency::cpu.data 70970.672557                       # average overall miss latency in ticks ((Tick/Count))
system.cpu.dcache.demandAvgMissLatency::total 70970.672557                       # average overall miss latency in ticks ((Tick/Count))
system.cpu.dcache.overallAvgMissLatency::cpu.data 70970.672557                       # average overall miss latency ((Tick/Count))
system.cpu.dcache.overallAvgMissLatency::total 70970.672557                       # average overall miss latency ((Tick/Count))
system.cpu.dcache.blockedCycles::no_mshrs            0                       # number of cycles access was blocked (Cycle)
system.cpu.dcache.blockedCycles::no_targets            0                       # number of cycles access was blocked (Cycle)
system.cpu.dcache.blockedCauses::no_mshrs            0                       # number of times access was blocked (Count)
system.cpu.dcache.blockedCauses::no_targets            0                       # number of times access was blocked (Count)
system.cpu.dcache.avgBlocked::no_mshrs            nan                       # average number of cycles each access was blocked ((Cycle/Count))
system.cpu.dcache.avgBlocked::no_targets          nan                       # average number of cycles each access was blocked ((Cycle/Count))
system.cpu.dcache.writebacks::writebacks       189609                       # number of writebacks (Count)
system.cpu.dcache.writebacks::total            189609                       # number of writebacks (Count)
system.cpu.dcache.demandMshrHits::cpu.data       204934                       # number of demand (read+write) MSHR hits (Count)
system.cpu.dcache.demandMshrHits::total        204934                       # number of demand (read+write) MSHR hits (Count)
system.cpu.dcache.overallMshrHits::cpu.data       204934                       # number of overall MSHR hits (Count)
system.cpu.dcache.overallMshrHits::total       204934                       # number of overall MSHR hits (Count)
system.cpu.dcache.demandMshrMisses::cpu.data       191657                       # number of demand (read+write) MSHR misses (Count)
system.cpu.dcache.demandMshrMisses::total       191657                       # number of demand (read+write) MSHR misses (Count)
system.cpu.dcache.overallMshrMisses::cpu.data       191657                       # number of overall MSHR misses (Count)
system.cpu.dcache.overallMshrMisses::total       191657                       # number of overall MSHR misses (Count)
system.cpu.dcache.overallMshrUncacheable::cpu.data            2                       # number of overall MSHR uncacheable misses (Count)
system.cpu.dcache.overallMshrUncacheable::total            2                       # number of overall MSHR uncacheable misses (Count)
system.cpu.dcache.demandMshrMissLatency::cpu.data  14618763500                       # number of demand (read+write) MSHR miss ticks (Tick)
system.cpu.dcache.demandMshrMissLatency::total  14618763500                       # number of demand (read+write) MSHR miss ticks (Tick)
system.cpu.dcache.overallMshrMissLatency::cpu.data  14618763500                       # number of overall MSHR miss ticks (Tick)
system.cpu.dcache.overallMshrMissLatency::total  14618763500                       # number of overall MSHR miss ticks (Tick)
system.cpu.dcache.demandMshrMissRate::cpu.data     0.143305                       # mshr miss ratio for demand accesses (Ratio)
system.cpu.dcache.demandMshrMissRate::total     0.143305                       # mshr miss ratio for demand accesses (Ratio)
system.cpu.dcache.overallMshrMissRate::cpu.data     0.143305                       # mshr miss ratio for overall accesses (Ratio)
system.cpu.dcache.overallMshrMissRate::total     0.143305                       # mshr miss ratio for overall accesses (Ratio)
system.cpu.dcache.demandAvgMshrMissLatency::cpu.data 76275.656511                       # average overall mshr miss latency ((Tick/Count))
system.cpu.dcache.demandAvgMshrMissLatency::total 76275.656511                       # average overall mshr miss latency ((Tick/Count))
system.cpu.dcache.overallAvgMshrMissLatency::cpu.data 76275.656511                       # average overall mshr miss latency ((Tick/Count))
system.cpu.dcache.overallAvgMshrMissLatency::total 76275.656511                       # average overall mshr miss latency ((Tick/Count))
system.cpu.dcache.replacements                 189609                       # number of replacements (Count)
system.cpu.dcache.ReadReq.hits::cpu.data       492596                       # number of ReadReq hits (Count)
system.cpu.dcache.ReadReq.hits::total          492596                       # number of ReadReq hits (Count)
system.cpu.dcache.ReadReq.misses::cpu.data       396590                       # number of ReadReq misses (Count)
system.cpu.dcache.ReadReq.misses::total        396590                       # number of ReadReq misses (Count)
system.cpu.dcache.ReadReq.missLatency::cpu.data  28146270000                       # number of ReadReq miss ticks (Tick)
system.cpu.dcache.ReadReq.missLatency::total  28146270000                       # number of ReadReq miss ticks (Tick)
system.cpu.dcache.ReadReq.missLatencyDist::samples       396590                       # number of ReadReq miss ticks histogram (Tick)
system.cpu.dcache.ReadReq.missLatencyDist::mean   141.941400                       # number of ReadReq miss ticks histogram (Tick)
system.cpu.dcache.ReadReq.missLatencyDist::stdev   105.667639                       # number of ReadReq miss ticks histogram (Tick)
system.cpu.dcache.ReadReq.missLatencyDist::0-9         8255      2.08%      2.08% # number of ReadReq miss ticks histogram (Tick)
system.cpu.dcache.ReadReq.missLatencyDist::10-19        30168      7.61%      9.69% # number of ReadReq miss ticks histogram (Tick)
system.cpu.dcache.ReadReq.missLatencyDist::20-29        53003     13.36%     23.05% # number of ReadReq miss ticks histogram (Tick)
system.cpu.dcache.ReadReq.missLatencyDist::30-39         5581      1.41%     24.46% # number of ReadReq miss ticks histogram (Tick)
system.cpu.dcache.ReadReq.missLatencyDist::40-49         3486      0.88%     25.34% # number of ReadReq miss ticks histogram (Tick)
system.cpu.dcache.ReadReq.missLatencyDist::50-59         3937      0.99%     26.33% # number of ReadReq miss ticks histogram (Tick)
system.cpu.dcache.ReadReq.missLatencyDist::60-69         3663      0.92%     27.26% # number of ReadReq miss ticks histogram (Tick)
system.cpu.dcache.ReadReq.missLatencyDist::70-79         3570      0.90%     28.16% # number of ReadReq miss ticks histogram (Tick)
system.cpu.dcache.ReadReq.missLatencyDist::80-89         3257      0.82%     28.98% # number of ReadReq miss ticks histogram (Tick)
system.cpu.dcache.ReadReq.missLatencyDist::90-99         3442      0.87%     29.84% # number of ReadReq miss ticks histogram (Tick)
system.cpu.dcache.ReadReq.missLatencyDist::100-109         4104      1.03%     30.88% # number of ReadReq miss ticks histogram (Tick)
system.cpu.dcache.ReadReq.missLatencyDist::110-119         4168      1.05%     31.93% # number of ReadReq miss ticks histogram (Tick)
system.cpu.dcache.ReadReq.missLatencyDist::120-129         9312      2.35%     34.28% # number of ReadReq miss ticks histogram (Tick)
system.cpu.dcache.ReadReq.missLatencyDist::130-139        11688      2.95%     37.23% # number of ReadReq miss ticks histogram (Tick)
system.cpu.dcache.ReadReq.missLatencyDist::140-149        20128      5.08%     42.30% # number of ReadReq miss ticks histogram (Tick)
system.cpu.dcache.ReadReq.missLatencyDist::150-159        21284      5.37%     47.67% # number of ReadReq miss ticks histogram (Tick)
system.cpu.dcache.ReadReq.missLatencyDist::160-169        33521      8.45%     56.12% # number of ReadReq miss ticks histogram (Tick)
system.cpu.dcache.ReadReq.missLatencyDist::170-179        57919     14.60%     70.72% # number of ReadReq miss ticks histogram (Tick)
system.cpu.dcache.ReadReq.missLatencyDist::180-189        51467     12.98%     83.70% # number of ReadReq miss ticks histogram (Tick)
system.cpu.dcache.ReadReq.missLatencyDist::190-199        12153      3.06%     86.77% # number of ReadReq miss ticks histogram (Tick)
system.cpu.dcache.ReadReq.missLatencyDist::200-209         6209      1.57%     88.33% # number of ReadReq miss ticks histogram (Tick)
system.cpu.dcache.ReadReq.missLatencyDist::210-219         5061      1.28%     89.61% # number of ReadReq miss ticks histogram (Tick)
system.cpu.dcache.ReadReq.missLatencyDist::220-229         5252      1.32%     90.93% # number of ReadReq miss ticks histogram (Tick)
system.cpu.dcache.ReadReq.missLatencyDist::230-239         5163      1.30%     92.23% # number of ReadReq miss ticks histogram (Tick)
system.cpu.dcache.ReadReq.missLatencyDist::240-249         5331      1.34%     93.58% # number of ReadReq miss ticks histogram (Tick)
system.cpu.dcache.ReadReq.missLatencyDist::250-259         4992      1.26%     94.84% # number of ReadReq miss ticks histogram (Tick)
system.cpu.dcache.ReadReq.missLatencyDist::260-269         4447      1.12%     95.96% # number of ReadReq miss ticks histogram (Tick)
system.cpu.dcache.ReadReq.missLatencyDist::270-279         3076      0.78%     96.73% # number of ReadReq miss ticks histogram (Tick)
system.cpu.dcache.ReadReq.missLatencyDist::280-289         2336      0.59%     97.32% # number of ReadReq miss ticks histogram (Tick)
system.cpu.dcache.ReadReq.missLatencyDist::290-299         1704      0.43%     97.75% # number of ReadReq miss ticks histogram (Tick)
system.cpu.dcache.ReadReq.missLatencyDist::300-309         1365      0.34%     98.10% # number of ReadReq miss ticks histogram (Tick)
system.cpu.dcache.ReadReq.missLatencyDist::310-319          999      0.25%     98.35% # number of ReadReq miss ticks histogram (Tick)
system.cpu.dcache.ReadReq.missLatencyDist::320-329          735      0.19%     98.53% # number of ReadReq miss ticks histogram (Tick)
system.cpu.dcache.ReadReq.missLatencyDist::330-339          519      0.13%     98.66% # number of ReadReq miss ticks histogram (Tick)
system.cpu.dcache.ReadReq.missLatencyDist::340-349          310      0.08%     98.74% # number of ReadReq miss ticks histogram (Tick)
system.cpu.dcache.ReadReq.missLatencyDist::350-359          221      0.06%     98.80% # number of ReadReq miss ticks histogram (Tick)
system.cpu.dcache.ReadReq.missLatencyDist::360-369          114      0.03%     98.83% # number of ReadReq miss ticks histogram (Tick)
system.cpu.dcache.ReadReq.missLatencyDist::370-379           65      0.02%     98.84% # number of ReadReq miss ticks histogram (Tick)
system.cpu.dcache.ReadReq.missLatencyDist::380-389           46      0.01%     98.86% # number of ReadReq miss ticks histogram (Tick)
system.cpu.dcache.ReadReq.missLatencyDist::390-399           31      0.01%     98.86% # number of ReadReq miss ticks histogram (Tick)
system.cpu.dcache.ReadReq.missLatencyDist::400-409           21      0.01%     98.87% # number of ReadReq miss ticks histogram (Tick)
system.cpu.dcache.ReadReq.missLatencyDist::410-419           14      0.00%     98.87% # number of ReadReq miss ticks histogram (Tick)
system.cpu.dcache.ReadReq.missLatencyDist::420-429            6      0.00%     98.87% # number of ReadReq miss ticks histogram (Tick)
system.cpu.dcache.ReadReq.missLatencyDist::430-439            8      0.00%     98.88% # number of ReadReq miss ticks histogram (Tick)
system.cpu.dcache.ReadReq.missLatencyDist::440-449            1      0.00%     98.88% # number of ReadReq miss ticks histogram (Tick)
system.cpu.dcache.ReadReq.missLatencyDist::450-459            4      0.00%     98.88% # number of ReadReq miss ticks histogram (Tick)
system.cpu.dcache.ReadReq.missLatencyDist::460-469            1      0.00%     98.88% # number of ReadReq miss ticks histogram (Tick)
system.cpu.dcache.ReadReq.missLatencyDist::470-479            2      0.00%     98.88% # number of ReadReq miss ticks histogram (Tick)
system.cpu.dcache.ReadReq.missLatencyDist::520-529            1      0.00%     98.88% # number of ReadReq miss ticks histogram (Tick)
system.cpu.dcache.ReadReq.missLatencyDist::530-539            4      0.00%     98.88% # number of ReadReq miss ticks histogram (Tick)
system.cpu.dcache.ReadReq.missLatencyDist::540-549            4      0.00%     98.88% # number of ReadReq miss ticks histogram (Tick)
system.cpu.dcache.ReadReq.missLatencyDist::550-559            1      0.00%     98.88% # number of ReadReq miss ticks histogram (Tick)
system.cpu.dcache.ReadReq.missLatencyDist::560-569            2      0.00%     98.88% # number of ReadReq miss ticks histogram (Tick)
system.cpu.dcache.ReadReq.missLatencyDist::580-589            5      0.00%     98.88% # number of ReadReq miss ticks histogram (Tick)
system.cpu.dcache.ReadReq.missLatencyDist::590-599            5      0.00%     98.88% # number of ReadReq miss ticks histogram (Tick)
system.cpu.dcache.ReadReq.missLatencyDist::600-609            8      0.00%     98.89% # number of ReadReq miss ticks histogram (Tick)
system.cpu.dcache.ReadReq.missLatencyDist::610-619            6      0.00%     98.89% # number of ReadReq miss ticks histogram (Tick)
system.cpu.dcache.ReadReq.missLatencyDist::620-629           17      0.00%     98.89% # number of ReadReq miss ticks histogram (Tick)
system.cpu.dcache.ReadReq.missLatencyDist::630-639           24      0.01%     98.90% # number of ReadReq miss ticks histogram (Tick)
system.cpu.dcache.ReadReq.missLatencyDist::640-649           20      0.01%     98.90% # number of ReadReq miss ticks histogram (Tick)
system.cpu.dcache.ReadReq.missLatencyDist::650-659           29      0.01%     98.91% # number of ReadReq miss ticks histogram (Tick)
system.cpu.dcache.ReadReq.missLatencyDist::660-669           37      0.01%     98.92% # number of ReadReq miss ticks histogram (Tick)
system.cpu.dcache.ReadReq.missLatencyDist::670-679           58      0.01%     98.93% # number of ReadReq miss ticks histogram (Tick)
system.cpu.dcache.ReadReq.missLatencyDist::680-689           80      0.02%     98.95% # number of ReadReq miss ticks histogram (Tick)
system.cpu.dcache.ReadReq.missLatencyDist::690-699           78      0.02%     98.97% # number of ReadReq miss ticks histogram (Tick)
system.cpu.dcache.ReadReq.missLatencyDist::700-709          102      0.03%     99.00% # number of ReadReq miss ticks histogram (Tick)
system.cpu.dcache.ReadReq.missLatencyDist::710-719           98      0.02%     99.02% # number of ReadReq miss ticks histogram (Tick)
system.cpu.dcache.ReadReq.missLatencyDist::720-729          133      0.03%     99.06% # number of ReadReq miss ticks histogram (Tick)
system.cpu.dcache.ReadReq.missLatencyDist::730-739          161      0.04%     99.10% # number of ReadReq miss ticks histogram (Tick)
system.cpu.dcache.ReadReq.missLatencyDist::740-749          212      0.05%     99.15% # number of ReadReq miss ticks histogram (Tick)
system.cpu.dcache.ReadReq.missLatencyDist::750-759          227      0.06%     99.21% # number of ReadReq miss ticks histogram (Tick)
system.cpu.dcache.ReadReq.missLatencyDist::760-769          259      0.07%     99.27% # number of ReadReq miss ticks histogram (Tick)
system.cpu.dcache.ReadReq.missLatencyDist::770-779          298      0.08%     99.35% # number of ReadReq miss ticks histogram (Tick)
system.cpu.dcache.ReadReq.missLatencyDist::780-789          243      0.06%     99.41% # number of ReadReq miss ticks histogram (Tick)
system.cpu.dcache.ReadReq.missLatencyDist::790-799          219      0.06%     99.47% # number of ReadReq miss ticks histogram (Tick)
system.cpu.dcache.ReadReq.missLatencyDist::800-809          208      0.05%     99.52% # number of ReadReq miss ticks histogram (Tick)
system.cpu.dcache.ReadReq.missLatencyDist::810-819          169      0.04%     99.56% # number of ReadReq miss ticks histogram (Tick)
system.cpu.dcache.ReadReq.missLatencyDist::820-829          177      0.04%     99.61% # number of ReadReq miss ticks histogram (Tick)
system.cpu.dcache.ReadReq.missLatencyDist::830-839          169      0.04%     99.65% # number of ReadReq miss ticks histogram (Tick)
system.cpu.dcache.ReadReq.missLatencyDist::840-849          193      0.05%     99.70% # number of ReadReq miss ticks histogram (Tick)
system.cpu.dcache.ReadReq.missLatencyDist::850-859          192      0.05%     99.74% # number of ReadReq miss ticks histogram (Tick)
system.cpu.dcache.ReadReq.missLatencyDist::860-869          167      0.04%     99.79% # number of ReadReq miss ticks histogram (Tick)
system.cpu.dcache.ReadReq.missLatencyDist::870-879          141      0.04%     99.82% # number of ReadReq miss ticks histogram (Tick)
system.cpu.dcache.ReadReq.missLatencyDist::880-889           81      0.02%     99.84% # number of ReadReq miss ticks histogram (Tick)
system.cpu.dcache.ReadReq.missLatencyDist::890-899           61      0.02%     99.86% # number of ReadReq miss ticks histogram (Tick)
system.cpu.dcache.ReadReq.missLatencyDist::900-909           39      0.01%     99.87% # number of ReadReq miss ticks histogram (Tick)
system.cpu.dcache.ReadReq.missLatencyDist::910-919           50      0.01%     99.88% # number of ReadReq miss ticks histogram (Tick)
system.cpu.dcache.ReadReq.missLatencyDist::920-929           39      0.01%     99.89% # number of ReadReq miss ticks histogram (Tick)
system.cpu.dcache.ReadReq.missLatencyDist::930-939           39      0.01%     99.90% # number of ReadReq miss ticks histogram (Tick)
system.cpu.dcache.ReadReq.missLatencyDist::940-949           45      0.01%     99.91% # number of ReadReq miss ticks histogram (Tick)
system.cpu.dcache.ReadReq.missLatencyDist::950-959           46      0.01%     99.92% # number of ReadReq miss ticks histogram (Tick)
system.cpu.dcache.ReadReq.missLatencyDist::960-969           64      0.02%     99.94% # number of ReadReq miss ticks histogram (Tick)
system.cpu.dcache.ReadReq.missLatencyDist::970-979           40      0.01%     99.95% # number of ReadReq miss ticks histogram (Tick)
system.cpu.dcache.ReadReq.missLatencyDist::980-989           31      0.01%     99.96% # number of ReadReq miss ticks histogram (Tick)
system.cpu.dcache.ReadReq.missLatencyDist::990-999           23      0.01%     99.96% # number of ReadReq miss ticks histogram (Tick)
system.cpu.dcache.ReadReq.missLatencyDist::overflows          146      0.04%    100.00% # number of ReadReq miss ticks histogram (Tick)
system.cpu.dcache.ReadReq.missLatencyDist::min_value            5                       # number of ReadReq miss ticks histogram (Tick)
system.cpu.dcache.ReadReq.missLatencyDist::max_value         1160                       # number of ReadReq miss ticks histogram (Tick)
system.cpu.dcache.ReadReq.missLatencyDist::total       396590                       # number of ReadReq miss ticks histogram (Tick)
system.cpu.dcache.ReadReq.accesses::cpu.data       889186                       # number of ReadReq accesses(hits+misses) (Count)
system.cpu.dcache.ReadReq.accesses::total       889186                       # number of ReadReq accesses(hits+misses) (Count)
system.cpu.dcache.ReadReq.missRate::cpu.data     0.446015                       # miss rate for ReadReq accesses (Ratio)
system.cpu.dcache.ReadReq.missRate::total     0.446015                       # miss rate for ReadReq accesses (Ratio)
system.cpu.dcache.ReadReq.avgMissLatency::cpu.data 70970.700219                       # average ReadReq miss latency ((Tick/Count))
system.cpu.dcache.ReadReq.avgMissLatency::total 70970.700219                       # average ReadReq miss latency ((Tick/Count))
system.cpu.dcache.ReadReq.mshrHits::cpu.data       204934                       # number of ReadReq MSHR hits (Count)
system.cpu.dcache.ReadReq.mshrHits::total       204934                       # number of ReadReq MSHR hits (Count)
system.cpu.dcache.ReadReq.mshrMisses::cpu.data       191656                       # number of ReadReq MSHR misses (Count)
system.cpu.dcache.ReadReq.mshrMisses::total       191656                       # number of ReadReq MSHR misses (Count)
system.cpu.dcache.ReadReq.mshrMissLatency::cpu.data  14618705500                       # number of ReadReq MSHR miss ticks (Tick)
system.cpu.dcache.ReadReq.mshrMissLatency::total  14618705500                       # number of ReadReq MSHR miss ticks (Tick)
system.cpu.dcache.ReadReq.mshrMissRate::cpu.data     0.215541                       # mshr miss rate for ReadReq accesses (Ratio)
system.cpu.dcache.ReadReq.mshrMissRate::total     0.215541                       # mshr miss rate for ReadReq accesses (Ratio)
system.cpu.dcache.ReadReq.avgMshrMissLatency::cpu.data 76275.751868                       # average ReadReq mshr miss latency ((Tick/Count))
system.cpu.dcache.ReadReq.avgMshrMissLatency::total 76275.751868                       # average ReadReq mshr miss latency ((Tick/Count))
system.cpu.dcache.WriteReq.hits::cpu.data       448215                       # number of WriteReq hits (Count)
system.cpu.dcache.WriteReq.hits::total         448215                       # number of WriteReq hits (Count)
system.cpu.dcache.WriteReq.misses::cpu.data            1                       # number of WriteReq misses (Count)
system.cpu.dcache.WriteReq.misses::total            1                       # number of WriteReq misses (Count)
system.cpu.dcache.WriteReq.missLatency::cpu.data        60000                       # number of WriteReq miss ticks (Tick)
system.cpu.dcache.WriteReq.missLatency::total        60000                       # number of WriteReq miss ticks (Tick)
system.cpu.dcache.WriteReq.missLatencyDist::samples            1                       # number of WriteReq miss ticks histogram (Tick)
system.cpu.dcache.WriteReq.missLatencyDist::mean          120                       # number of WriteReq miss ticks histogram (Tick)
system.cpu.dcache.WriteReq.missLatencyDist::120-129            1    100.00%    100.00% # number of WriteReq miss ticks histogram (Tick)
system.cpu.dcache.WriteReq.missLatencyDist::min_value          120                       # number of WriteReq miss ticks histogram (Tick)
system.cpu.dcache.WriteReq.missLatencyDist::max_value          120                       # number of WriteReq miss ticks histogram (Tick)
system.cpu.dcache.WriteReq.missLatencyDist::total            1                       # number of WriteReq miss ticks histogram (Tick)
system.cpu.dcache.WriteReq.accesses::cpu.data       448216                       # number of WriteReq accesses(hits+misses) (Count)
system.cpu.dcache.WriteReq.accesses::total       448216                       # number of WriteReq accesses(hits+misses) (Count)
system.cpu.dcache.WriteReq.missRate::cpu.data     0.000002                       # miss rate for WriteReq accesses (Ratio)
system.cpu.dcache.WriteReq.missRate::total     0.000002                       # miss rate for WriteReq accesses (Ratio)
system.cpu.dcache.WriteReq.avgMissLatency::cpu.data        60000                       # average WriteReq miss latency ((Tick/Count))
system.cpu.dcache.WriteReq.avgMissLatency::total        60000                       # average WriteReq miss latency ((Tick/Count))
system.cpu.dcache.WriteReq.mshrMisses::cpu.data            1                       # number of WriteReq MSHR misses (Count)
system.cpu.dcache.WriteReq.mshrMisses::total            1                       # number of WriteReq MSHR misses (Count)
system.cpu.dcache.WriteReq.mshrUncacheable::cpu.data            2                       # number of WriteReq MSHR uncacheable (Count)
system.cpu.dcache.WriteReq.mshrUncacheable::total            2                       # number of WriteReq MSHR uncacheable (Count)
system.cpu.dcache.WriteReq.mshrMissLatency::cpu.data        58000                       # number of WriteReq MSHR miss ticks (Tick)
system.cpu.dcache.WriteReq.mshrMissLatency::total        58000                       # number of WriteReq MSHR miss ticks (Tick)
system.cpu.dcache.WriteReq.mshrMissRate::cpu.data     0.000002                       # mshr miss rate for WriteReq accesses (Ratio)
system.cpu.dcache.WriteReq.mshrMissRate::total     0.000002                       # mshr miss rate for WriteReq accesses (Ratio)
system.cpu.dcache.WriteReq.avgMshrMissLatency::cpu.data        58000                       # average WriteReq mshr miss latency ((Tick/Count))
system.cpu.dcache.WriteReq.avgMshrMissLatency::total        58000                       # average WriteReq mshr miss latency ((Tick/Count))
system.cpu.dcache.power_state.pwrStateResidencyTicks::UNDEFINED   4669788500                       # Cumulative time (in ticks) in various power states (Tick)
system.cpu.dcache.tags.tagsInUse          2029.903521                       # Average ticks per tags in use ((Tick/Count))
system.cpu.dcache.tags.totalRefs               824465                       # Total number of references to valid blocks. (Count)
system.cpu.dcache.tags.sampledRefs             189609                       # Sample count of references to valid blocks. (Count)
system.cpu.dcache.tags.avgRefs               4.348238                       # Average number of references to valid blocks. ((Count/Count))
system.cpu.dcache.tags.warmupTick              166000                       # The tick when the warmup percentage was hit. (Tick)
system.cpu.dcache.tags.occupancies::cpu.data  2029.903521                       # Average occupied blocks per tick, per requestor ((Count/Tick))
system.cpu.dcache.tags.avgOccs::cpu.data     0.991164                       # Average percentage of cache occupancy ((Ratio/Tick))
system.cpu.dcache.tags.avgOccs::total        0.991164                       # Average percentage of cache occupancy ((Ratio/Tick))
system.cpu.dcache.tags.occupanciesTaskId::1024         2048                       # Occupied blocks per task id (Count)
system.cpu.dcache.tags.ageTaskId_1024::0          432                       # Occupied blocks per task id, per block age (Count)
system.cpu.dcache.tags.ageTaskId_1024::1         1597                       # Occupied blocks per task id, per block age (Count)
system.cpu.dcache.tags.ageTaskId_1024::2           17                       # Occupied blocks per task id, per block age (Count)
system.cpu.dcache.tags.ageTaskId_1024::3            2                       # Occupied blocks per task id, per block age (Count)
system.cpu.dcache.tags.ratioOccsTaskId::1024            1                       # Ratio of occupied blocks and all blocks, per task id (Ratio)
system.cpu.dcache.tags.tagAccesses           10890873                       # Number of tag accesses (Count)
system.cpu.dcache.tags.dataAccesses          10890873                       # Number of data accesses (Count)
system.cpu.dcache.tags.power_state.pwrStateResidencyTicks::UNDEFINED   4669788500                       # Cumulative time (in ticks) in various power states (Tick)
system.cpu.decode.idleCycles                   148405                       # Number of cycles decode is idle (Cycle)
system.cpu.decode.blockedCycles               7136165                       # Number of cycles decode is blocked (Cycle)
system.cpu.decode.runCycles                   1846510                       # Number of cycles decode is running (Cycle)
system.cpu.decode.unblockCycles                178803                       # Number of cycles decode is unblocking (Cycle)
system.cpu.decode.squashCycles                  28461                       # Number of cycles decode is squashing (Cycle)
system.cpu.decode.branchResolved               976719                       # Number of times decode resolved a branch (Count)
system.cpu.decode.branchMispred                  6301                       # Number of times decode detected a branch misprediction (Count)
system.cpu.decode.decodedInsts               12044445                       # Number of instructions handled by decode (Count)
system.cpu.decode.squashedInsts                 31056                       # Number of squashed instructions handled by decode (Count)
system.cpu.decode.mispredictedByPC                  0                       # Number of instructions that mispredicted due to pc (Count)
system.cpu.decode.mispredictedByNPC                 0                       # Number of instructions that mispredicted due to npc (Count)
system.cpu.dtb_walker_cache.demandHits::cpu.mmu.dtb.walker         2353                       # number of demand (read+write) hits (Count)
system.cpu.dtb_walker_cache.demandHits::total         2353                       # number of demand (read+write) hits (Count)
system.cpu.dtb_walker_cache.overallHits::cpu.mmu.dtb.walker         2353                       # number of overall hits (Count)
system.cpu.dtb_walker_cache.overallHits::total         2353                       # number of overall hits (Count)
system.cpu.dtb_walker_cache.demandMisses::cpu.mmu.dtb.walker          839                       # number of demand (read+write) misses (Count)
system.cpu.dtb_walker_cache.demandMisses::total          839                       # number of demand (read+write) misses (Count)
system.cpu.dtb_walker_cache.overallMisses::cpu.mmu.dtb.walker          839                       # number of overall misses (Count)
system.cpu.dtb_walker_cache.overallMisses::total          839                       # number of overall misses (Count)
system.cpu.dtb_walker_cache.demandMissLatency::cpu.mmu.dtb.walker     74630483                       # number of demand (read+write) miss ticks (Tick)
system.cpu.dtb_walker_cache.demandMissLatency::total     74630483                       # number of demand (read+write) miss ticks (Tick)
system.cpu.dtb_walker_cache.overallMissLatency::cpu.mmu.dtb.walker     74630483                       # number of overall miss ticks (Tick)
system.cpu.dtb_walker_cache.overallMissLatency::total     74630483                       # number of overall miss ticks (Tick)
system.cpu.dtb_walker_cache.demandAccesses::cpu.mmu.dtb.walker         3192                       # number of demand (read+write) accesses (Count)
system.cpu.dtb_walker_cache.demandAccesses::total         3192                       # number of demand (read+write) accesses (Count)
system.cpu.dtb_walker_cache.overallAccesses::cpu.mmu.dtb.walker         3192                       # number of overall (read+write) accesses (Count)
system.cpu.dtb_walker_cache.overallAccesses::total         3192                       # number of overall (read+write) accesses (Count)
system.cpu.dtb_walker_cache.demandMissRate::cpu.mmu.dtb.walker     0.262845                       # miss rate for demand accesses (Ratio)
system.cpu.dtb_walker_cache.demandMissRate::total     0.262845                       # miss rate for demand accesses (Ratio)
system.cpu.dtb_walker_cache.overallMissRate::cpu.mmu.dtb.walker     0.262845                       # miss rate for overall accesses (Ratio)
system.cpu.dtb_walker_cache.overallMissRate::total     0.262845                       # miss rate for overall accesses (Ratio)
system.cpu.dtb_walker_cache.demandAvgMissLatency::cpu.mmu.dtb.walker 88951.707986                       # average overall miss latency in ticks ((Tick/Count))
system.cpu.dtb_walker_cache.demandAvgMissLatency::total 88951.707986                       # average overall miss latency in ticks ((Tick/Count))
system.cpu.dtb_walker_cache.overallAvgMissLatency::cpu.mmu.dtb.walker 88951.707986                       # average overall miss latency ((Tick/Count))
system.cpu.dtb_walker_cache.overallAvgMissLatency::total 88951.707986                       # average overall miss latency ((Tick/Count))
system.cpu.dtb_walker_cache.blockedCycles::no_mshrs            0                       # number of cycles access was blocked (Cycle)
system.cpu.dtb_walker_cache.blockedCycles::no_targets            0                       # number of cycles access was blocked (Cycle)
system.cpu.dtb_walker_cache.blockedCauses::no_mshrs            0                       # number of times access was blocked (Count)
system.cpu.dtb_walker_cache.blockedCauses::no_targets            0                       # number of times access was blocked (Count)
system.cpu.dtb_walker_cache.avgBlocked::no_mshrs          nan                       # average number of cycles each access was blocked ((Cycle/Count))
system.cpu.dtb_walker_cache.avgBlocked::no_targets          nan                       # average number of cycles each access was blocked ((Cycle/Count))
system.cpu.dtb_walker_cache.demandMshrHits::cpu.mmu.dtb.walker           25                       # number of demand (read+write) MSHR hits (Count)
system.cpu.dtb_walker_cache.demandMshrHits::total           25                       # number of demand (read+write) MSHR hits (Count)
system.cpu.dtb_walker_cache.overallMshrHits::cpu.mmu.dtb.walker           25                       # number of overall MSHR hits (Count)
system.cpu.dtb_walker_cache.overallMshrHits::total           25                       # number of overall MSHR hits (Count)
[...]
system.mem_ctrls.dram.writeRowHits              45669                       # Number of row buffer hits during writes (Count)
system.mem_ctrls.dram.readRowHitRate             8.66                       # Row buffer hit rate for reads (Ratio)
system.mem_ctrls.dram.writeRowHitRate           22.11                       # Row buffer hit rate for writes (Ratio)
system.mem_ctrls.dram.bytesPerActivate::samples       349345                       # Bytes accessed per row activation (Byte)
system.mem_ctrls.dram.bytesPerActivate::mean    75.640527                       # Bytes accessed per row activation (Byte)
system.mem_ctrls.dram.bytesPerActivate::gmean    71.949938                       # Bytes accessed per row activation (Byte)
system.mem_ctrls.dram.bytesPerActivate::stdev    30.601125                       # Bytes accessed per row activation (Byte)
system.mem_ctrls.dram.bytesPerActivate::0-127       295428     84.57%     84.57% # Bytes accessed per row activation (Byte)
system.mem_ctrls.dram.bytesPerActivate::128-255        52488     15.02%     99.59% # Bytes accessed per row activation (Byte)
system.mem_ctrls.dram.bytesPerActivate::256-383         1195      0.34%     99.93% # Bytes accessed per row activation (Byte)
system.mem_ctrls.dram.bytesPerActivate::384-511          181      0.05%     99.98% # Bytes accessed per row activation (Byte)
system.mem_ctrls.dram.bytesPerActivate::512-639           42      0.01%    100.00% # Bytes accessed per row activation (Byte)
system.mem_ctrls.dram.bytesPerActivate::640-767            5      0.00%    100.00% # Bytes accessed per row activation (Byte)
system.mem_ctrls.dram.bytesPerActivate::768-895            2      0.00%    100.00% # Bytes accessed per row activation (Byte)
system.mem_ctrls.dram.bytesPerActivate::896-1023            2      0.00%    100.00% # Bytes accessed per row activation (Byte)
system.mem_ctrls.dram.bytesPerActivate::1024-1151            2      0.00%    100.00% # Bytes accessed per row activation (Byte)
system.mem_ctrls.dram.bytesPerActivate::total       349345                       # Bytes accessed per row activation (Byte)
system.mem_ctrls.dram.bytesRead              13207424                       # Total bytes read (Byte)
system.mem_ctrls.dram.bytesWritten           13217216                       # Total bytes written (Byte)
system.mem_ctrls.dram.avgRdBW             2613.962390                       # Average DRAM read bandwidth in MiBytes/s ((Byte/Second))
system.mem_ctrls.dram.avgWrBW             2615.900385                       # Average DRAM write bandwidth in MiBytes/s ((Byte/Second))
system.mem_ctrls.dram.peakBW                 19207.00                       # Theoretical peak bandwidth in MiByte/s ((Byte/Second))
system.mem_ctrls.dram.busUtil                   27.23                       # Data bus utilization in percentage (Ratio)
system.mem_ctrls.dram.busUtilRead               13.61                       # Data bus utilization in percentage for reads (Ratio)
system.mem_ctrls.dram.busUtilWrite              13.62                       # Data bus utilization in percentage for writes (Ratio)
system.mem_ctrls.dram.pageHitRate               15.39                       # Row buffer hit rate, read and write combined (Ratio)
system.mem_ctrls.dram.power_state.pwrStateResidencyTicks::UNDEFINED   5052645000                       # Cumulative time (in ticks) in various power states (Tick)
system.mem_ctrls.dram.rank0.actEnergy    532860610.464000                       # Energy for activate commands per rank (pJ) (Joule)
system.mem_ctrls.dram.rank0.preEnergy    708443789.088000                       # Energy for precharge commands per rank (pJ) (Joule)
system.mem_ctrls.dram.rank0.readEnergy   424455221.971201                       # Energy for read commands per rank (pJ) (Joule)
system.mem_ctrls.dram.rank0.writeEnergy  381543721.440000                       # Energy for write commands per rank (pJ) (Joule)
system.mem_ctrls.dram.rank0.refreshEnergy 899110080.052804                       # Energy for refresh commands per rank (pJ) (Joule)
system.mem_ctrls.dram.rank0.actBackEnergy 4271516041.867194                       # Energy for active background per rank (pJ) (Joule)
system.mem_ctrls.dram.rank0.preBackEnergy 16297702.310400                       # Energy for precharge background per rank (pJ) (Joule)
system.mem_ctrls.dram.rank0.actPowerDownEnergy            0                       # Energy for active power-down per rank (pJ) (Joule)
system.mem_ctrls.dram.rank0.prePowerDownEnergy            0                       # Energy for precharge power-down per rank (pJ) (Joule)
system.mem_ctrls.dram.rank0.selfRefreshEnergy            0                       # Energy for self refresh per rank (pJ) (Joule)
system.mem_ctrls.dram.rank0.totalEnergy  7234227167.193609                       # Total energy per rank (pJ) (Joule)
system.mem_ctrls.dram.rank0.averagePower  1431.770324                       # Core power per rank (mW) (Watt)
system.mem_ctrls.dram.rank0.totalIdleTime            0                       # Total Idle time Per DRAM Rank (Tick)
system.mem_ctrls.dram.rank0.pwrStateTime::IDLE      6639710                       # Time in different power states (Tick)
system.mem_ctrls.dram.rank0.pwrStateTime::REF    227150000                       # Time in different power states (Tick)
system.mem_ctrls.dram.rank0.pwrStateTime::SREF            0                       # Time in different power states (Tick)
system.mem_ctrls.dram.rank0.pwrStateTime::PRE_PDN            0                       # Time in different power states (Tick)
system.mem_ctrls.dram.rank0.pwrStateTime::ACT   4818855290                       # Time in different power states (Tick)
system.mem_ctrls.dram.rank0.pwrStateTime::ACT_PDN            0                       # Time in different power states (Tick)
system.mem_ctrls.dram.rank1.actEnergy    556675400.736000                       # Energy for activate commands per rank (pJ) (Joule)
system.mem_ctrls.dram.rank1.preEnergy    740092808.414400                       # Energy for precharge commands per rank (pJ) (Joule)
system.mem_ctrls.dram.rank1.readEnergy   443581344.460800                       # Energy for read commands per rank (pJ) (Joule)
system.mem_ctrls.dram.rank1.writeEnergy  394690940.448000                       # Energy for write commands per rank (pJ) (Joule)
system.mem_ctrls.dram.rank1.refreshEnergy 899110080.052804                       # Energy for refresh commands per rank (pJ) (Joule)
system.mem_ctrls.dram.rank1.actBackEnergy 4270983131.116796                       # Energy for active background per rank (pJ) (Joule)
system.mem_ctrls.dram.rank1.preBackEnergy 16707170.457600                       # Energy for precharge background per rank (pJ) (Joule)
system.mem_ctrls.dram.rank1.actPowerDownEnergy            0                       # Energy for active power-down per rank (pJ) (Joule)
system.mem_ctrls.dram.rank1.prePowerDownEnergy            0                       # Energy for precharge power-down per rank (pJ) (Joule)
system.mem_ctrls.dram.rank1.selfRefreshEnergy            0                       # Energy for self refresh per rank (pJ) (Joule)
system.mem_ctrls.dram.rank1.totalEnergy  7321840875.686405                       # Total energy per rank (pJ) (Joule)
system.mem_ctrls.dram.rank1.averagePower  1449.110491                       # Core power per rank (mW) (Watt)
system.mem_ctrls.dram.rank1.totalIdleTime            0                       # Total Idle time Per DRAM Rank (Tick)
system.mem_ctrls.dram.rank1.pwrStateTime::IDLE      7201788                       # Time in different power states (Tick)
system.mem_ctrls.dram.rank1.pwrStateTime::REF    227150000                       # Time in different power states (Tick)
system.mem_ctrls.dram.rank1.pwrStateTime::SREF            0                       # Time in different power states (Tick)
system.mem_ctrls.dram.rank1.pwrStateTime::PRE_PDN            0                       # Time in different power states (Tick)
system.mem_ctrls.dram.rank1.pwrStateTime::ACT   4818293212                       # Time in different power states (Tick)
system.mem_ctrls.dram.rank1.pwrStateTime::ACT_PDN            0                       # Time in different power states (Tick)
system.mem_ctrls.power_state.pwrStateResidencyTicks::UNDEFINED   5052645000                       # Cumulative time (in ticks) in various power states (Tick)
system.membus.transDist::ReadResp              124566                       # Transaction distribution (Count)
system.membus.transDist::WritebackDirty         79656                       # Transaction distribution (Count)
system.membus.transDist::WritebackClean        126868                       # Transaction distribution (Count)
system.membus.transDist::CleanEvict                64                       # Transaction distribution (Count)
system.membus.transDist::ReadExReq              82047                       # Transaction distribution (Count)
system.membus.transDist::ReadExResp             82036                       # Transaction distribution (Count)
system.membus.transDist::ReadCleanReq          124566                       # Transaction distribution (Count)
system.membus.pktCount_system.l2.mem_side_port::system.mem_ctrls.port       619803                       # Packet count per connected requestor and responder (Count)
system.membus.pktCount_system.l2.mem_side_port::total       619803                       # Packet count per connected requestor and responder (Count)
system.membus.pktCount::total                  619803                       # Packet count per connected requestor and responder (Count)
system.membus.pktSize_system.l2.mem_side_port::system.mem_ctrls.port     26440064                       # Cumulative packet size per connected requestor and responder (Byte)
system.membus.pktSize_system.l2.mem_side_port::total     26440064                       # Cumulative packet size per connected requestor and responder (Byte)
system.membus.pktSize::total                 26440064                       # Cumulative packet size per connected requestor and responder (Byte)
system.membus.snoops                                0                       # Total snoops (Count)
system.membus.snoopTraffic                          0                       # Total snoop traffic (Byte)
system.membus.snoopFanout::samples             206613                       # Request fanout histogram (Count)
system.membus.snoopFanout::mean                     0                       # Request fanout histogram (Count)
system.membus.snoopFanout::stdev                    0                       # Request fanout histogram (Count)
system.membus.snoopFanout::underflows               0      0.00%      0.00% # Request fanout histogram (Count)
system.membus.snoopFanout::0                   206613    100.00%    100.00% # Request fanout histogram (Count)
system.membus.snoopFanout::1                        0      0.00%    100.00% # Request fanout histogram (Count)
system.membus.snoopFanout::2                        0      0.00%    100.00% # Request fanout histogram (Count)
system.membus.snoopFanout::overflows                0      0.00%    100.00% # Request fanout histogram (Count)
system.membus.snoopFanout::min_value                0                       # Request fanout histogram (Count)
system.membus.snoopFanout::max_value                0                       # Request fanout histogram (Count)
system.membus.snoopFanout::total               206613                       # Request fanout histogram (Count)
system.membus.badaddr_responder.power_state.pwrStateResidencyTicks::UNDEFINED   5052645000                       # Cumulative time (in ticks) in various power states (Tick)
system.membus.power_state.pwrStateResidencyTicks::UNDEFINED   5052645000                       # Cumulative time (in ticks) in various power states (Tick)
system.membus.reqLayer1.occupancy          1268085500                       # Layer occupancy (ticks) (Tick)
system.membus.reqLayer1.utilization               0.3                       # Layer utilization (Ratio)
system.membus.respLayer2.occupancy         1060468668                       # Layer occupancy (ticks) (Tick)
system.membus.respLayer2.utilization              0.2                       # Layer utilization (Ratio)
system.membus.snoop_filter.totRequests         413201                       # Total number of requests made to the snoop filter. (Count)
system.membus.snoop_filter.hitSingleRequests       206608                       # Number of requests hitting in the snoop filter with a single holder of the requested data. (Count)
system.membus.snoop_filter.hitMultiRequests            0                       # Number of requests hitting in the snoop filter with multiple (>1) holders of the requested data. (Count)
system.membus.snoop_filter.totSnoops                0                       # Total number of snoops made to the snoop filter. (Count)
system.membus.snoop_filter.hitSingleSnoops            0                       # Number of snoops hitting in the snoop filter with a single holder of the requested data. (Count)
system.membus.snoop_filter.hitMultiSnoops            0                       # Number of snoops hitting in the snoop filter with multiple (>1) holders of the requested data. (Count)
system.mmcs.power_state.pwrStateResidencyTicks::UNDEFINED   5052645000                       # Cumulative time (in ticks) in various power states (Tick)
system.tol2bus.transDist::ReadResp             164540                       # Transaction distribution (Count)
system.tol2bus.transDist::WritebackDirty       200629                       # Transaction distribution (Count)
system.tol2bus.transDist::WritebackClean       282894                       # Transaction distribution (Count)
system.tol2bus.transDist::CleanEvict               84                       # Transaction distribution (Count)
system.tol2bus.transDist::ReadExReq            112556                       # Transaction distribution (Count)
system.tol2bus.transDist::ReadExResp           112544                       # Transaction distribution (Count)
system.tol2bus.transDist::ReadCleanReq              1                       # Transaction distribution (Count)
system.tol2bus.transDist::ReadSharedReq        164540                       # Transaction distribution (Count)
system.tol2bus.pktCount_system.cpu.icache.mem_side_port::system.l2.cpu_side_port            2                       # Packet count per connected requestor and responder (Count)
system.tol2bus.pktCount_system.cpu.dcache.mem_side_port::system.l2.cpu_side_port       831010                       # Packet count per connected requestor and responder (Count)
system.tol2bus.pktCount_system.cpu.dtb_walker_cache.mem_side_port::system.l2.cpu_side_port          252                       # Packet count per connected requestor and responder (Count)
system.tol2bus.pktCount::total                 831264                       # Packet count per connected requestor and responder (Count)
system.tol2bus.pktSize_system.cpu.icache.mem_side_port::system.l2.cpu_side_port           64                       # Cumulative packet size per connected requestor and responder (Byte)
system.tol2bus.pktSize_system.cpu.dcache.mem_side_port::system.l2.cpu_side_port     35455872                       # Cumulative packet size per connected requestor and responder (Byte)
system.tol2bus.pktSize_system.cpu.dtb_walker_cache.mem_side_port::system.l2.cpu_side_port         5376                       # Cumulative packet size per connected requestor and responder (Byte)
system.tol2bus.pktSize::total                35461312                       # Cumulative packet size per connected requestor and responder (Byte)
system.tol2bus.snoops                          206524                       # Total snoops (Count)
system.tol2bus.snoopTraffic                  13217536                       # Total snoop traffic (Byte)
system.tol2bus.snoopFanout::samples            483627                       # Request fanout histogram (Count)
system.tol2bus.snoopFanout::mean             0.000041                       # Request fanout histogram (Count)
system.tol2bus.snoopFanout::stdev            0.006431                       # Request fanout histogram (Count)
system.tol2bus.snoopFanout::underflows              0      0.00%      0.00% # Request fanout histogram (Count)
system.tol2bus.snoopFanout::0                  483607    100.00%    100.00% # Request fanout histogram (Count)
system.tol2bus.snoopFanout::1                      20      0.00%    100.00% # Request fanout histogram (Count)
system.tol2bus.snoopFanout::2                       0      0.00%    100.00% # Request fanout histogram (Count)
system.tol2bus.snoopFanout::3                       0      0.00%    100.00% # Request fanout histogram (Count)
system.tol2bus.snoopFanout::4                       0      0.00%    100.00% # Request fanout histogram (Count)
system.tol2bus.snoopFanout::overflows               0      0.00%    100.00% # Request fanout histogram (Count)
system.tol2bus.snoopFanout::min_value               0                       # Request fanout histogram (Count)
system.tol2bus.snoopFanout::max_value               1                       # Request fanout histogram (Count)
system.tol2bus.snoopFanout::total              483627                       # Request fanout histogram (Count)
system.tol2bus.power_state.pwrStateResidencyTicks::UNDEFINED   5052645000                       # Cumulative time (in ticks) in various power states (Tick)
system.tol2bus.reqLayer0.occupancy          415655936                       # Layer occupancy (ticks) (Tick)
system.tol2bus.reqLayer0.utilization              0.1                       # Layer utilization (Ratio)
system.tol2bus.respLayer0.occupancy              1000                       # Layer occupancy (ticks) (Tick)
system.tol2bus.respLayer0.utilization             0.0                       # Layer utilization (Ratio)
system.tol2bus.respLayer1.occupancy         276999000                       # Layer occupancy (ticks) (Tick)
system.tol2bus.respLayer1.utilization             0.1                       # Layer utilization (Ratio)
system.tol2bus.respLayer3.occupancy             84000                       # Layer occupancy (ticks) (Tick)
system.tol2bus.respLayer3.utilization             0.0                       # Layer utilization (Ratio)
system.tol2bus.snoop_filter.totRequests        554249                       # Total number of requests made to the snoop filter. (Count)
system.tol2bus.snoop_filter.hitSingleRequests       277146                       # Number of requests hitting in the snoop filter with a single holder of the requested data. (Count)
system.tol2bus.snoop_filter.hitMultiRequests           20                       # Number of requests hitting in the snoop filter with multiple (>1) holders of the requested data. (Count)
system.tol2bus.snoop_filter.totSnoops               0                       # Total number of snoops made to the snoop filter. (Count)
system.tol2bus.snoop_filter.hitSingleSnoops            0                       # Number of snoops hitting in the snoop filter with a single holder of the requested data. (Count)
system.tol2bus.snoop_filter.hitMultiSnoops            0                       # Number of snoops hitting in the snoop filter with multiple (>1) holders of the requested data. (Count)
system.uartlite.power_state.pwrStateResidencyTicks::UNDEFINED   5052645000                       # Cumulative time (in ticks) in various power states (Tick)
system.voltage_domain.voltage                       1                       # Voltage in Volts (Volt)
system.workload.inst.arm                            0                       # number of arm instructions executed (Count)
system.workload.inst.quiesce                        0                       # number of quiesce instructions executed (Count)

---------- End Simulation Statistics   ----------
