
---------- Begin Simulation Statistics ----------
simSeconds                                   0.004053                       # Number of seconds simulated (Second)
simTicks                                   4053124500                       # Number of ticks simulated (Tick)
finalTick                                  4053124500                       # Number of ticks from beginning of simulation (restored from checkpoints and never reset) (Tick)
simFreq                                  1000000000000                       # The number of ticks per simulated second ((Tick/Second))
hostSeconds                                     76.56                       # Real time elapsed on the host (Second)
hostTickRate                                 52939230                       # The number of ticks simulated per host second (ticks/s) ((Tick/Second))
hostMemory                                   17012960                       # Number of bytes of host memory used (Byte)
simInsts                                     10000000                       # Number of instructions simulated (Count)
simOps                                       10000000                       # Number of ops (including micro ops) simulated (Count)
hostInstRate                                   130613                       # Simulator instruction rate (inst/s) ((Count/Second))
hostOpRate                                     130613                       # Simulator op (including micro ops) rate (op/s) ((Count/Second))
system.bridge.power_state.pwrStateResidencyTicks::UNDEFINED   4053124500                       # Cumulative time (in ticks) in various power states (Tick)
system.clk_domain.clock                          1000                       # Clock period in ticks (Tick)
system.cpu.numCycles                          8106250                       # Number of cpu cycles simulated (Cycle)
system.cpu.numWorkItemsStarted                      0                       # Number of work items this cpu started (Count)
system.cpu.numWorkItemsCompleted                    0                       # Number of work items this cpu completed (Count)
system.cpu.instsAdded                        17167572                       # Number of instructions added to the IQ (excludes non-spec) (Count)
system.cpu.nonSpecInstsAdded                       36                       # Number of non-speculative instructions added to the IQ (Count)
system.cpu.instsIssued                       13318228                       # Number of instructions issued (Count)
system.cpu.squashedInstsIssued                   3257                       # Number of squashed instructions issued (Count)
system.cpu.squashedInstsExamined              7396103                       # Number of squashed instructions iterated over during squash; mainly for profiling (Count)
system.cpu.squashedOperandsExamined           6589369                       # Number of squashed operands that are examined and possibly removed from graph (Count)
system.cpu.squashedNonSpecRemoved                   3                       # Number of squashed non-spec instructions that were removed (Count)
system.cpu.numIssuedDist::samples             8100807                       # Number of insts issued each cycle (Count)
system.cpu.numIssuedDist::mean               1.644062                       # Number of insts issued each cycle (Count)
system.cpu.numIssuedDist::stdev              1.636306                       # Number of insts issued each cycle (Count)
system.cpu.numIssuedDist::underflows                0      0.00%      0.00% # Number of insts issued each cycle (Count)
system.cpu.numIssuedDist::0                   2715018     33.52%     33.52% # Number of insts issued each cycle (Count)
system.cpu.numIssuedDist::1                   1553159     19.17%     52.69% # Number of insts issued each cycle (Count)
system.cpu.numIssuedDist::2                   1705996     21.06%     73.75% # Number of insts issued each cycle (Count)
system.cpu.numIssuedDist::3                    946703     11.69%     85.43% # Number of insts issued each cycle (Count)
system.cpu.numIssuedDist::4                    653805      8.07%     93.51% # Number of insts issued each cycle (Count)
system.cpu.numIssuedDist::5                    316507      3.91%     97.41% # Number of insts issued each cycle (Count)
system.cpu.numIssuedDist::6                    162662      2.01%     99.42% # Number of insts issued each cycle (Count)
system.cpu.numIssuedDist::7                     36415      0.45%     99.87% # Number of insts issued each cycle (Count)
system.cpu.numIssuedDist::8                     10542      0.13%    100.00% # Number of insts issued each cycle (Count)
system.cpu.numIssuedDist::overflows                 0      0.00%    100.00% # Number of insts issued each cycle (Count)
system.cpu.numIssuedDist::min_value                 0                       # Number of insts issued each cycle (Count)
system.cpu.numIssuedDist::max_value                 8                       # Number of insts issued each cycle (Count)
system.cpu.numIssuedDist::total               8100807                       # Number of insts issued each cycle (Count)
system.cpu.statFuBusy::No_OpClass                   0      0.00%      0.00% # attempts to use FU when none available (Count)
system.cpu.statFuBusy::IntAlu                    1992      0.23%      0.23% # attempts to use FU when none available (Count)
system.cpu.statFuBusy::IntMult                      0      0.00%      0.23% # attempts to use FU when none available (Count)
system.cpu.statFuBusy::IntDiv                       0      0.00%      0.23% # attempts to use FU when none available (Count)
system.cpu.statFuBusy::FloatAdd                     0      0.00%      0.23% # attempts to use FU when none available (Count)
system.cpu.statFuBusy::FloatCmp                     0      0.00%      0.23% # attempts to use FU when none available (Count)
system.cpu.statFuBusy::FloatCvt                     0      0.00%      0.23% # attempts to use FU when none available (Count)
system.cpu.statFuBusy::FloatMult                    0      0.00%      0.23% # attempts to use FU when none available (Count)
system.cpu.statFuBusy::FloatMultAcc                 0      0.00%      0.23% # attempts to use FU when none available (Count)
system.cpu.statFuBusy::FloatDiv                     0      0.00%      0.23% # attempts to use FU when none available (Count)
system.cpu.statFuBusy::FloatMisc                    0      0.00%      0.23% # attempts to use FU when none available (Count)
system.cpu.statFuBusy::FloatSqrt                    0      0.00%      0.23% # attempts to use FU when none available (Count)
system.cpu.statFuBusy::SimdAdd                      0      0.00%      0.23% # attempts to use FU when none available (Count)
system.cpu.statFuBusy::SimdAddAcc                   0      0.00%      0.23% # attempts to use FU when none available (Count)
system.cpu.statFuBusy::SimdAlu                      0      0.00%      0.23% # attempts to use FU when none available (Count)
system.cpu.statFuBusy::SimdCmp                      0      0.00%      0.23% # attempts to use FU when none available (Count)
system.cpu.statFuBusy::SimdCvt                      0      0.00%      0.23% # attempts to use FU when none available (Count)
system.cpu.statFuBusy::SimdMisc                     0      0.00%      0.23% # attempts to use FU when none available (Count)
system.cpu.statFuBusy::SimdMult                     0      0.00%      0.23% # attempts to use FU when none available (Count)
system.cpu.statFuBusy::SimdMultAcc                  0      0.00%      0.23% # attempts to use FU when none available (Count)
system.cpu.statFuBusy::SimdShift                    0      0.00%      0.23% # attempts to use FU when none available (Count)
system.cpu.statFuBusy::SimdShiftAcc                 0      0.00%      0.23% # attempts to use FU when none available (Count)
system.cpu.statFuBusy::SimdDiv                      0      0.00%      0.23% # attempts to use FU when none available (Count)
system.cpu.statFuBusy::SimdSqrt                     0      0.00%      0.23% # attempts to use FU when none available (Count)
system.cpu.statFuBusy::SimdFloatAdd                 0      0.00%      0.23% # attempts to use FU when none available (Count)
system.cpu.statFuBusy::SimdFloatAlu                 0      0.00%      0.23% # attempts to use FU when none available (Count)
system.cpu.statFuBusy::SimdFloatCmp                 0      0.00%      0.23% # attempts to use FU when none available (Count)
system.cpu.statFuBusy::SimdFloatCvt                 0      0.00%      0.23% # attempts to use FU when none available (Count)
system.cpu.statFuBusy::SimdFloatDiv                 0      0.00%      0.23% # attempts to use FU when none available (Count)
system.cpu.statFuBusy::SimdFloatMisc                0      0.00%      0.23% # attempts to use FU when none available (Count)
system.cpu.statFuBusy::SimdFloatMult                0      0.00%      0.23% # attempts to use FU when none available (Count)
system.cpu.statFuBusy::SimdFloatMultAcc             0      0.00%      0.23% # attempts to use FU when none available (Count)
system.cpu.statFuBusy::SimdFloatSqrt                0      0.00%      0.23% # attempts to use FU when none available (Count)
system.cpu.statFuBusy::SimdReduceAdd                0      0.00%      0.23% # attempts to use FU when none available (Count)
system.cpu.statFuBusy::SimdReduceAlu                0      0.00%      0.23% # attempts to use FU when none available (Count)
system.cpu.statFuBusy::SimdReduceCmp                0      0.00%      0.23% # attempts to use FU when none available (Count)
system.cpu.statFuBusy::SimdFloatReduceAdd            0      0.00%      0.23% # attempts to use FU when none available (Count)
system.cpu.statFuBusy::SimdFloatReduceCmp            0      0.00%      0.23% # attempts to use FU when none available (Count)
system.cpu.statFuBusy::SimdAes                      0      0.00%      0.23% # attempts to use FU when none available (Count)
system.cpu.statFuBusy::SimdAesMix                   0      0.00%      0.23% # attempts to use FU when none available (Count)
system.cpu.statFuBusy::SimdSha1Hash                 0      0.00%      0.23% # attempts to use FU when none available (Count)
system.cpu.statFuBusy::SimdSha1Hash2                0      0.00%      0.23% # attempts to use FU when none available (Count)
system.cpu.statFuBusy::SimdSha256Hash               0      0.00%      0.23% # attempts to use FU when none available (Count)
system.cpu.statFuBusy::SimdSha256Hash2              0      0.00%      0.23% # attempts to use FU when none available (Count)
system.cpu.statFuBusy::SimdShaSigma2                0      0.00%      0.23% # attempts to use FU when none available (Count)
system.cpu.statFuBusy::SimdShaSigma3                0      0.00%      0.23% # attempts to use FU when none available (Count)
system.cpu.statFuBusy::SimdPredAlu                  0      0.00%      0.23% # attempts to use FU when none available (Count)
system.cpu.statFuBusy::MemRead                 798338     93.83%     94.07% # attempts to use FU when none available (Count)
system.cpu.statFuBusy::MemWrite                 50455      5.93%    100.00% # attempts to use FU when none available (Count)
system.cpu.statFuBusy::FloatMemRead                15      0.00%    100.00% # attempts to use FU when none available (Count)
system.cpu.statFuBusy::FloatMemWrite                0      0.00%    100.00% # attempts to use FU when none available (Count)
system.cpu.statFuBusy::IprAccess                    0      0.00%    100.00% # attempts to use FU when none available (Count)
system.cpu.statFuBusy::InstPrefetch                 0      0.00%    100.00% # attempts to use FU when none available (Count)
system.cpu.statFuBusy::FMAMul                       0      0.00%    100.00% # attempts to use FU when none available (Count)
system.cpu.statFuBusy::FMAAcc                       0      0.00%    100.00% # attempts to use FU when none available (Count)
system.cpu.statIssuedInstType_0::No_OpClass           32      0.00%      0.00% # Number of instructions issued per FU type, per thread (Count)
system.cpu.statIssuedInstType_0::IntAlu       7231626     54.30%     54.30% # Number of instructions issued per FU type, per thread (Count)
system.cpu.statIssuedInstType_0::IntMult           41      0.00%     54.30% # Number of instructions issued per FU type, per thread (Count)
system.cpu.statIssuedInstType_0::IntDiv             1      0.00%     54.30% # Number of instructions issued per FU type, per thread (Count)
system.cpu.statIssuedInstType_0::FloatAdd            0      0.00%     54.30% # Number of instructions issued per FU type, per thread (Count)
system.cpu.statIssuedInstType_0::FloatCmp            0      0.00%     54.30% # Number of instructions issued per FU type, per thread (Count)
system.cpu.statIssuedInstType_0::FloatCvt            0      0.00%     54.30% # Number of instructions issued per FU type, per thread (Count)
system.cpu.statIssuedInstType_0::FloatMult            0      0.00%     54.30% # Number of instructions issued per FU type, per thread (Count)
system.cpu.statIssuedInstType_0::FloatMultAcc            0      0.00%     54.30% # Number of instructions issued per FU type, per thread (Count)
system.cpu.statIssuedInstType_0::FloatDiv            0      0.00%     54.30% # Number of instructions issued per FU type, per thread (Count)
system.cpu.statIssuedInstType_0::FloatMisc            0      0.00%     54.30% # Number of instructions issued per FU type, per thread (Count)
system.cpu.statIssuedInstType_0::FloatSqrt            0      0.00%     54.30% # Number of instructions issued per FU type, per thread (Count)
system.cpu.statIssuedInstType_0::SimdAdd            0      0.00%     54.30% # Number of instructions issued per FU type, per thread (Count)
system.cpu.statIssuedInstType_0::SimdAddAcc            0      0.00%     54.30% # Number of instructions issued per FU type, per thread (Count)
system.cpu.statIssuedInstType_0::SimdAlu            0      0.00%     54.30% # Number of instructions issued per FU type, per thread (Count)
system.cpu.statIssuedInstType_0::SimdCmp            0      0.00%     54.30% # Number of instructions issued per FU type, per thread (Count)
system.cpu.statIssuedInstType_0::SimdCvt            0      0.00%     54.30% # Number of instructions issued per FU type, per thread (Count)
system.cpu.statIssuedInstType_0::SimdMisc            0      0.00%     54.30% # Number of instructions issued per FU type, per thread (Count)
system.cpu.statIssuedInstType_0::SimdMult            0      0.00%     54.30% # Number of instructions issued per FU type, per thread (Count)
system.cpu.statIssuedInstType_0::SimdMultAcc            0      0.00%     54.30% # Number of instructions issued per FU type, per thread (Count)
system.cpu.statIssuedInstType_0::SimdShift            0      0.00%     54.30% # Number of instructions issued per FU type, per thread (Count)
system.cpu.statIssuedInstType_0::SimdShiftAcc            0      0.00%     54.30% # Number of instructions issued per FU type, per thread (Count)
system.cpu.statIssuedInstType_0::SimdDiv            0      0.00%     54.30% # Number of instructions issued per FU type, per thread (Count)
system.cpu.statIssuedInstType_0::SimdSqrt            0      0.00%     54.30% # Number of instructions issued per FU type, per thread (Count)
system.cpu.statIssuedInstType_0::SimdFloatAdd            0      0.00%     54.30% # Number of instructions issued per FU type, per thread (Count)
system.cpu.statIssuedInstType_0::SimdFloatAlu            0      0.00%     54.30% # Number of instructions issued per FU type, per thread (Count)
system.cpu.statIssuedInstType_0::SimdFloatCmp            0      0.00%     54.30% # Number of instructions issued per FU type, per thread (Count)
system.cpu.statIssuedInstType_0::SimdFloatCvt            0      0.00%     54.30% # Number of instructions issued per FU type, per thread (Count)
system.cpu.statIssuedInstType_0::SimdFloatDiv            0      0.00%     54.30% # Number of instructions issued per FU type, per thread (Count)
system.cpu.statIssuedInstType_0::SimdFloatMisc            0      0.00%     54.30% # Number of instructions issued per FU type, per thread (Count)
system.cpu.statIssuedInstType_0::SimdFloatMult            0      0.00%     54.30% # Number of instructions issued per FU type, per thread (Count)
system.cpu.statIssuedInstType_0::SimdFloatMultAcc            0      0.00%     54.30% # Number of instructions issued per FU type, per thread (Count)
system.cpu.statIssuedInstType_0::SimdFloatSqrt            0      0.00%     54.30% # Number of instructions issued per FU type, per thread (Count)
system.cpu.statIssuedInstType_0::SimdReduceAdd            0      0.00%     54.30% # Number of instructions issued per FU type, per thread (Count)
system.cpu.statIssuedInstType_0::SimdReduceAlu            0      0.00%     54.30% # Number of instructions issued per FU type, per thread (Count)
system.cpu.statIssuedInstType_0::SimdReduceCmp            0      0.00%     54.30% # Number of instructions issued per FU type, per thread (Count)
system.cpu.statIssuedInstType_0::SimdFloatReduceAdd            0      0.00%     54.30% # Number of instructions issued per FU type, per thread (Count)
system.cpu.statIssuedInstType_0::SimdFloatReduceCmp            0      0.00%     54.30% # Number of instructions issued per FU type, per thread (Count)
system.cpu.statIssuedInstType_0::SimdAes            0      0.00%     54.30% # Number of instructions issued per FU type, per thread (Count)
system.cpu.statIssuedInstType_0::SimdAesMix            0      0.00%     54.30% # Number of instructions issued per FU type, per thread (Count)
system.cpu.statIssuedInstType_0::SimdSha1Hash            0      0.00%     54.30% # Number of instructions issued per FU type, per thread (Count)
system.cpu.statIssuedInstType_0::SimdSha1Hash2            0      0.00%     54.30% # Number of instructions issued per FU type, per thread (Count)
system.cpu.statIssuedInstType_0::SimdSha256Hash            0      0.00%     54.30% # Number of instructions issued per FU type, per thread (Count)
system.cpu.statIssuedInstType_0::SimdSha256Hash2            0      0.00%     54.30% # Number of instructions issued per FU type, per thread (Count)
system.cpu.statIssuedInstType_0::SimdShaSigma2            0      0.00%     54.30% # Number of instructions issued per FU type, per thread (Count)
system.cpu.statIssuedInstType_0::SimdShaSigma3            0      0.00%     54.30% # Number of instructions issued per FU type, per thread (Count)
system.cpu.statIssuedInstType_0::SimdPredAlu            0      0.00%     54.30% # Number of instructions issued per FU type, per thread (Count)
system.cpu.statIssuedInstType_0::MemRead      4252874     31.93%     86.23% # Number of instructions issued per FU type, per thread (Count)
system.cpu.statIssuedInstType_0::MemWrite      1833622     13.77%    100.00% # Number of instructions issued per FU type, per thread (Count)
system.cpu.statIssuedInstType_0::FloatMemRead           32      0.00%    100.00% # Number of instructions issued per FU type, per thread (Count)
system.cpu.statIssuedInstType_0::FloatMemWrite            0      0.00%    100.00% # Number of instructions issued per FU type, per thread (Count)
system.cpu.statIssuedInstType_0::IprAccess            0      0.00%    100.00% # Number of instructions issued per FU type, per thread (Count)
system.cpu.statIssuedInstType_0::InstPrefetch            0      0.00%    100.00% # Number of instructions issued per FU type, per thread (Count)
system.cpu.statIssuedInstType_0::FMAMul             0      0.00%    100.00% # Number of instructions issued per FU type, per thread (Count)
system.cpu.statIssuedInstType_0::FMAAcc             0      0.00%    100.00% # Number of instructions issued per FU type, per thread (Count)
system.cpu.statIssuedInstType_0::total       13318228                       # Number of instructions issued per FU type, per thread (Count)
system.cpu.issueRate                         1.642958                       # Inst issue rate ((Count/Cycle))
system.cpu.fuBusy                              850800                       # FU busy when requested (Count)
system.cpu.fuBusyRate                        0.063882                       # FU busy rate (busy events/executed inst) ((Count/Count))
system.cpu.intInstQueueReads                 35591239                       # Number of integer instruction queue reads (Count)
system.cpu.intInstQueueWrites                24632823                       # Number of integer instruction queue writes (Count)
system.cpu.intInstQueueWakeupAccesses        13082643                       # Number of integer instruction queue wakeup accesses (Count)
system.cpu.fpInstQueueReads                        79                       # Number of floating instruction queue reads (Count)
system.cpu.fpInstQueueWrites                       32                       # Number of floating instruction queue writes (Count)
system.cpu.fpInstQueueWakeupAccesses               32                       # Number of floating instruction queue wakeup accesses (Count)
system.cpu.vecInstQueueReads                        0                       # Number of vector instruction queue reads (Count)
system.cpu.vecInstQueueWrites                       0                       # Number of vector instruction queue writes (Count)
system.cpu.vecInstQueueWakeupAccesses               0                       # Number of vector instruction queue wakeup accesses (Count)
system.cpu.intAluAccesses                    14168949                       # Number of integer alu accesses (Count)
system.cpu.fpAluAccesses                           47                       # Number of floating point alu accesses (Count)
system.cpu.vecAluAccesses                           0                       # Number of vector alu accesses (Count)
system.cpu.numInsts                          13144038                       # Number of executed instructions (Count)
system.cpu.numLoadInsts                       4203918                       # Number of load instructions executed (Count)
system.cpu.numSquashedInsts                    173474                       # Number of squashed instructions skipped in execute (Count)
system.cpu.numSwp                                   0                       # Number of swp insts executed (Count)
system.cpu.numNop                              480490                       # Number of nop insts executed (Count)
system.cpu.numRefs                            5974861                       # Number of memory reference insts executed (Count)
system.cpu.numBranches                        1860679                       # Number of branches executed (Count)
system.cpu.numStoreInsts                      1770943                       # Number of stores executed (Count)
system.cpu.numRate                           1.621470                       # Inst execution rate ((Count/Cycle))
system.cpu.timesIdled                              68                       # Number of times that the entire CPU went into an idle state and unscheduled itself (Count)
system.cpu.idleCycles                            5443                       # Total number of cycles that the CPU has spent unscheduled due to idling (Cycle)
system.cpu.committedInsts                    10000000                       # Number of Instructions Simulated (Count)
system.cpu.committedOps                      10000000                       # Number of Ops (including micro ops) Simulated (Count)
system.cpu.cpi                               0.810625                       # CPI: Cycles Per Instruction ((Cycle/Count))
system.cpu.totalCpi                          0.810625                       # CPI: Total CPI of All Threads ((Cycle/Count))
system.cpu.ipc                               1.233616                       # IPC: Instructions Per Cycle ((Count/Cycle))
system.cpu.totalIpc                          1.233616                       # IPC: Total IPC of All Threads ((Count/Cycle))
system.cpu.intRegfileReads                   16205055                       # Number of integer regfile reads (Count)
system.cpu.intRegfileWrites                   9870504                       # Number of integer regfile writes (Count)
system.cpu.fpRegfileReads                          32                       # Number of floating regfile reads (Count)
system.cpu.fpRegfileWrites                         32                       # Number of floating regfile writes (Count)
system.cpu.miscRegfileReads                 134348926                       # number of misc regfile reads (Count)
system.cpu.miscRegfileWrites                       59                       # number of misc regfile writes (Count)
system.cpu.lastCommitTick                  4053124500                       # The last tick to commit an instruction (Count)
system.cpu.MemDepUnit__0.insertedLoads        5194045                       # Number of loads inserted to the mem dependence unit. (Count)
system.cpu.MemDepUnit__0.insertedStores       2733081                       # Number of stores inserted to the mem dependence unit. (Count)
system.cpu.MemDepUnit__0.conflictingLoads      2598285                       # Number of conflicting loads. (Count)
system.cpu.MemDepUnit__0.conflictingStores      1902788                       # Number of conflicting stores. (Count)
system.cpu.MemDepUnit__1.insertedLoads              0                       # Number of loads inserted to the mem dependence unit. (Count)
system.cpu.MemDepUnit__1.insertedStores             0                       # Number of stores inserted to the mem dependence unit. (Count)
system.cpu.MemDepUnit__1.conflictingLoads            0                       # Number of conflicting loads. (Count)
system.cpu.MemDepUnit__1.conflictingStores            0                       # Number of conflicting stores. (Count)
system.cpu.MemDepUnit__2.insertedLoads              0                       # Number of loads inserted to the mem dependence unit. (Count)
system.cpu.MemDepUnit__2.insertedStores             0                       # Number of stores inserted to the mem dependence unit. (Count)
system.cpu.MemDepUnit__2.conflictingLoads            0                       # Number of conflicting loads. (Count)
system.cpu.MemDepUnit__2.conflictingStores            0                       # Number of conflicting stores. (Count)
system.cpu.MemDepUnit__3.insertedLoads              0                       # Number of loads inserted to the mem dependence unit. (Count)
system.cpu.MemDepUnit__3.insertedStores             0                       # Number of stores inserted to the mem dependence unit. (Count)
system.cpu.MemDepUnit__3.conflictingLoads            0                       # Number of conflicting loads. (Count)
system.cpu.MemDepUnit__3.conflictingStores            0                       # Number of conflicting stores. (Count)
system.cpu.branchPred.lookups                 4033277                       # Number of BP lookups (Count)
system.cpu.branchPred.condPredicted           2671950                       # Number of conditional branches predicted (Count)
system.cpu.branchPred.condIncorrect             47661                       # Number of conditional branches incorrect (Count)
system.cpu.branchPred.BTBLookups              1758781                       # Number of BTB lookups (Count)
system.cpu.branchPred.BTBHits                 1758383                       # Number of BTB hits (Count)
system.cpu.branchPred.BTBHitRatio            0.999774                       # BTB Hit Ratio (Ratio)
system.cpu.branchPred.RASUsed                  653588                       # Number of times the RAS was used to get a target. (Count)
system.cpu.branchPred.RASIncorrect                  6                       # Number of incorrect RAS predictions. (Count)
system.cpu.branchPred.indirectLookups             445                       # Number of indirect predictor lookups. (Count)
system.cpu.branchPred.indirectHits                445                       # Number of indirect target hits. (Count)
system.cpu.branchPred.indirectMisses                0                       # Number of indirect misses. (Count)
system.cpu.branchPred.indirectMispredicted            1                       # Number of mispredicted indirect branches. (Count)
system.cpu.branchPred.indirectBranchPred.mainlookupHit           20                       # ittage the provider component lookup hit (Count)
system.cpu.branchPred.loop_predictor.correct       751909                       # Number of times the loop predictor is the provider and the prediction is correct (Count)
system.cpu.branchPred.loop_predictor.wrong       166819                       # Number of times the loop predictor is the provider and the prediction is wrong (Count)
system.cpu.branchPred.tage.longestMatchProviderCorrect       457377                       # Number of times TAGE Longest Match is the provider and the prediction is correct (Count)
system.cpu.branchPred.tage.altMatchProviderCorrect        19059                       # Number of times TAGE Alt Match is the provider and the prediction is correct (Count)
system.cpu.branchPred.tage.bimodalAltMatchProviderCorrect          255                       # Number of times TAGE Alt Match is the bimodal and it is the provider and the prediction is correct (Count)
system.cpu.branchPred.tage.bimodalProviderCorrect       394564                       # Number of times there are no hits on the TAGE tables and the bimodal prediction is correct (Count)
system.cpu.branchPred.tage.longestMatchProviderWrong        38134                       # Number of times TAGE Longest Match is the provider and the prediction is wrong (Count)
system.cpu.branchPred.tage.altMatchProviderWrong         9091                       # Number of times TAGE Alt Match is the provider and the prediction is wrong (Count)
system.cpu.branchPred.tage.bimodalAltMatchProviderWrong           89                       # Number of times TAGE Alt Match is the bimodal and it is the provider and the prediction is wrong (Count)
system.cpu.branchPred.tage.bimodalProviderWrong          159                       # Number of times there are no hits on the TAGE tables and the bimodal prediction is wrong (Count)
system.cpu.branchPred.tage.altMatchProviderWouldHaveHit         8221                       # Number of times TAGE Longest Match is the provider, the prediction is wrong and Alt Match prediction was correct (Count)
system.cpu.branchPred.tage.longestMatchProviderWouldHaveHit         4906                       # Number of times TAGE Alt Match is the provider, the prediction is wrong and Longest Match prediction was correct (Count)
system.cpu.branchPred.tage.longestMatchProvider::0            0                       # TAGE provider for longest match (Count)
system.cpu.branchPred.tage.longestMatchProvider::1        32820                       # TAGE provider for longest match (Count)
system.cpu.branchPred.tage.longestMatchProvider::2        58646                       # TAGE provider for longest match (Count)
system.cpu.branchPred.tage.longestMatchProvider::3        40752                       # TAGE provider for longest match (Count)
system.cpu.branchPred.tage.longestMatchProvider::4        50007                       # TAGE provider for longest match (Count)
system.cpu.branchPred.tage.longestMatchProvider::5       116839                       # TAGE provider for longest match (Count)
system.cpu.branchPred.tage.longestMatchProvider::6       115097                       # TAGE provider for longest match (Count)
system.cpu.branchPred.tage.longestMatchProvider::7        45815                       # TAGE provider for longest match (Count)
system.cpu.branchPred.tage.longestMatchProvider::8        27685                       # TAGE provider for longest match (Count)
system.cpu.branchPred.tage.longestMatchProvider::9        17127                       # TAGE provider for longest match (Count)
system.cpu.branchPred.tage.longestMatchProvider::10        13299                       # TAGE provider for longest match (Count)
system.cpu.branchPred.tage.longestMatchProvider::11         3712                       # TAGE provider for longest match (Count)
system.cpu.branchPred.tage.longestMatchProvider::12         1862                       # TAGE provider for longest match (Count)
system.cpu.branchPred.tage.altMatchProvider::0        59299                       # TAGE provider for alt match (Count)
system.cpu.branchPred.tage.altMatchProvider::1        63186                       # TAGE provider for alt match (Count)
system.cpu.branchPred.tage.altMatchProvider::2        41642                       # TAGE provider for alt match (Count)
system.cpu.branchPred.tage.altMatchProvider::3        53073                       # TAGE provider for alt match (Count)
system.cpu.branchPred.tage.altMatchProvider::4       128705                       # TAGE provider for alt match (Count)
system.cpu.branchPred.tage.altMatchProvider::5        97921                       # TAGE provider for alt match (Count)
system.cpu.branchPred.tage.altMatchProvider::6        34096                       # TAGE provider for alt match (Count)
system.cpu.branchPred.tage.altMatchProvider::7        13620                       # TAGE provider for alt match (Count)
system.cpu.branchPred.tage.altMatchProvider::8        14498                       # TAGE provider for alt match (Count)
system.cpu.branchPred.tage.altMatchProvider::9        12461                       # TAGE provider for alt match (Count)
system.cpu.branchPred.tage.altMatchProvider::10         3480                       # TAGE provider for alt match (Count)
system.cpu.branchPred.tage.altMatchProvider::11         1680                       # TAGE provider for alt match (Count)
system.cpu.branchPred.tage.altMatchProvider::12            0                       # TAGE provider for alt match (Count)
system.cpu.commit.commitSquashedInsts         7648013                       # The number of squashed insts skipped by commit (Count)
system.cpu.commit.commitNonSpecStalls              33                       # The number of times commit has been forced to stall to communicate backwards (Count)
system.cpu.commit.branchMispredicts             47566                       # The number of times a branch was mispredicted (Count)
system.cpu.commit.numCommittedDist::samples      6765907                       # Number of insts commited each cycle (Count)
system.cpu.commit.numCommittedDist::mean     1.477998                       # Number of insts commited each cycle (Count)
system.cpu.commit.numCommittedDist::stdev     2.150963                       # Number of insts commited each cycle (Count)
system.cpu.commit.numCommittedDist::underflows            0      0.00%      0.00% # Number of insts commited each cycle (Count)
system.cpu.commit.numCommittedDist::0         3819573     56.45%     56.45% # Number of insts commited each cycle (Count)
system.cpu.commit.numCommittedDist::1          826386     12.21%     68.67% # Number of insts commited each cycle (Count)
system.cpu.commit.numCommittedDist::2          370013      5.47%     74.14% # Number of insts commited each cycle (Count)
system.cpu.commit.numCommittedDist::3          542141      8.01%     82.15% # Number of insts commited each cycle (Count)
system.cpu.commit.numCommittedDist::4          126351      1.87%     84.02% # Number of insts commited each cycle (Count)
system.cpu.commit.numCommittedDist::5          186897      2.76%     86.78% # Number of insts commited each cycle (Count)
system.cpu.commit.numCommittedDist::6          894546     13.22%    100.00% # Number of insts commited each cycle (Count)
system.cpu.commit.numCommittedDist::overflows            0      0.00%    100.00% # Number of insts commited each cycle (Count)
system.cpu.commit.numCommittedDist::min_value            0                       # Number of insts commited each cycle (Count)
system.cpu.commit.numCommittedDist::max_value            6                       # Number of insts commited each cycle (Count)
system.cpu.commit.numCommittedDist::total      6765907                       # Number of insts commited each cycle (Count)
system.cpu.commit.instsCommitted             10000000                       # Number of instructions committed (Count)
system.cpu.commit.opsCommitted               10000000                       # Number of ops (including micro ops) committed (Count)
system.cpu.commit.memRefs                     4768903                       # Number of memory references committed (Count)
system.cpu.commit.loads                       3101882                       # Number of loads committed (Count)
system.cpu.commit.amos                              0                       # Number of atomic instructions committed (Count)
system.cpu.commit.membars                           0                       # Number of memory barriers committed (Count)
system.cpu.commit.branches                    1307843                       # Number of branches committed (Count)
system.cpu.commit.vectorInstructions                0                       # Number of committed Vector instructions. (Count)
system.cpu.commit.floating                         32                       # Number of committed floating point instructions. (Count)
system.cpu.commit.integer                     9951407                       # Number of committed integer instructions. (Count)
system.cpu.commit.functionCalls                170254                       # Number of function calls committed. (Count)
system.cpu.commit.committedInstType_0::No_OpClass           32      0.00%      0.00% # Class of committed instruction (Count)
system.cpu.commit.committedInstType_0::IntAlu      5231028     52.31%     52.31% # Class of committed instruction (Count)
system.cpu.commit.committedInstType_0::IntMult           37      0.00%     52.31% # Class of committed instruction (Count)
system.cpu.commit.committedInstType_0::IntDiv            0      0.00%     52.31% # Class of committed instruction (Count)
system.cpu.commit.committedInstType_0::FloatAdd            0      0.00%     52.31% # Class of committed instruction (Count)
system.cpu.commit.committedInstType_0::FloatCmp            0      0.00%     52.31% # Class of committed instruction (Count)
system.cpu.commit.committedInstType_0::FloatCvt            0      0.00%     52.31% # Class of committed instruction (Count)
system.cpu.commit.committedInstType_0::FloatMult            0      0.00%     52.31% # Class of committed instruction (Count)
system.cpu.commit.committedInstType_0::FloatMultAcc            0      0.00%     52.31% # Class of committed instruction (Count)
system.cpu.commit.committedInstType_0::FloatDiv            0      0.00%     52.31% # Class of committed instruction (Count)
system.cpu.commit.committedInstType_0::FloatMisc            0      0.00%     52.31% # Class of committed instruction (Count)
system.cpu.commit.committedInstType_0::FloatSqrt            0      0.00%     52.31% # Class of committed instruction (Count)
system.cpu.commit.committedInstType_0::SimdAdd            0      0.00%     52.31% # Class of committed instruction (Count)
system.cpu.commit.committedInstType_0::SimdAddAcc            0      0.00%     52.31% # Class of committed instruction (Count)
system.cpu.commit.committedInstType_0::SimdAlu            0      0.00%     52.31% # Class of committed instruction (Count)
system.cpu.commit.committedInstType_0::SimdCmp            0      0.00%     52.31% # Class of committed instruction (Count)
system.cpu.commit.committedInstType_0::SimdCvt            0      0.00%     52.31% # Class of committed instruction (Count)
system.cpu.commit.committedInstType_0::SimdMisc            0      0.00%     52.31% # Class of committed instruction (Count)
system.cpu.commit.committedInstType_0::SimdMult            0      0.00%     52.31% # Class of committed instruction (Count)
system.cpu.commit.committedInstType_0::SimdMultAcc            0      0.00%     52.31% # Class of committed instruction (Count)
system.cpu.commit.committedInstType_0::SimdShift            0      0.00%     52.31% # Class of committed instruction (Count)
system.cpu.commit.committedInstType_0::SimdShiftAcc            0      0.00%     52.31% # Class of committed instruction (Count)
system.cpu.commit.committedInstType_0::SimdDiv            0      0.00%     52.31% # Class of committed instruction (Count)
system.cpu.commit.committedInstType_0::SimdSqrt            0      0.00%     52.31% # Class of committed instruction (Count)
system.cpu.commit.committedInstType_0::SimdFloatAdd            0      0.00%     52.31% # Class of committed instruction (Count)
system.cpu.commit.committedInstType_0::SimdFloatAlu            0      0.00%     52.31% # Class of committed instruction (Count)
system.cpu.commit.committedInstType_0::SimdFloatCmp            0      0.00%     52.31% # Class of committed instruction (Count)
system.cpu.commit.committedInstType_0::SimdFloatCvt            0      0.00%     52.31% # Class of committed instruction (Count)
system.cpu.commit.committedInstType_0::SimdFloatDiv            0      0.00%     52.31% # Class of committed instruction (Count)
system.cpu.commit.committedInstType_0::SimdFloatMisc            0      0.00%     52.31% # Class of committed instruction (Count)
system.cpu.commit.committedInstType_0::SimdFloatMult            0      0.00%     52.31% # Class of committed instruction (Count)
system.cpu.commit.committedInstType_0::SimdFloatMultAcc            0      0.00%     52.31% # Class of committed instruction (Count)
system.cpu.commit.committedInstType_0::SimdFloatSqrt            0      0.00%     52.31% # Class of committed instruction (Count)
system.cpu.commit.committedInstType_0::SimdReduceAdd            0      0.00%     52.31% # Class of committed instruction (Count)
system.cpu.commit.committedInstType_0::SimdReduceAlu            0      0.00%     52.31% # Class of committed instruction (Count)
system.cpu.commit.committedInstType_0::SimdReduceCmp            0      0.00%     52.31% # Class of committed instruction (Count)
system.cpu.commit.committedInstType_0::SimdFloatReduceAdd            0      0.00%     52.31% # Class of committed instruction (Count)
system.cpu.commit.committedInstType_0::SimdFloatReduceCmp            0      0.00%     52.31% # Class of committed instruction (Count)
system.cpu.commit.committedInstType_0::SimdAes            0      0.00%     52.31% # Class of committed instruction (Count)
system.cpu.commit.committedInstType_0::SimdAesMix            0      0.00%     52.31% # Class of committed instruction (Count)
system.cpu.commit.committedInstType_0::SimdSha1Hash            0      0.00%     52.31% # Class of committed instruction (Count)
system.cpu.commit.committedInstType_0::SimdSha1Hash2            0      0.00%     52.31% # Class of committed instruction (Count)
system.cpu.commit.committedInstType_0::SimdSha256Hash            0      0.00%     52.31% # Class of committed instruction (Count)
system.cpu.commit.committedInstType_0::SimdSha256Hash2            0      0.00%     52.31% # Class of committed instruction (Count)
system.cpu.commit.committedInstType_0::SimdShaSigma2            0      0.00%     52.31% # Class of committed instruction (Count)
system.cpu.commit.committedInstType_0::SimdShaSigma3            0      0.00%     52.31% # Class of committed instruction (Count)
system.cpu.commit.committedInstType_0::SimdPredAlu            0      0.00%     52.31% # Class of committed instruction (Count)
system.cpu.commit.committedInstType_0::MemRead      3101850     31.02%     83.33% # Class of committed instruction (Count)
system.cpu.commit.committedInstType_0::MemWrite      1667021     16.67%    100.00% # Class of committed instruction (Count)
system.cpu.commit.committedInstType_0::FloatMemRead           32      0.00%    100.00% # Class of committed instruction (Count)
system.cpu.commit.committedInstType_0::FloatMemWrite            0      0.00%    100.00% # Class of committed instruction (Count)
system.cpu.commit.committedInstType_0::IprAccess            0      0.00%    100.00% # Class of committed instruction (Count)
system.cpu.commit.committedInstType_0::InstPrefetch            0      0.00%    100.00% # Class of committed instruction (Count)
system.cpu.commit.committedInstType_0::FMAMul            0      0.00%    100.00% # Class of committed instruction (Count)
system.cpu.commit.committedInstType_0::FMAAcc            0      0.00%    100.00% # Class of committed instruction (Count)
system.cpu.commit.committedInstType_0::total     10000000                       # Class of committed instruction (Count)
system.cpu.commit.commitEligibleSamples        894546                       # number cycles where commit BW limit reached (Cycle)
system.cpu.dcache.demandHits::cpu.data        4744955                       # number of demand (read+write) hits (Count)
system.cpu.dcache.demandHits::total           4744955                       # number of demand (read+write) hits (Count)
system.cpu.dcache.overallHits::cpu.data       4744955                       # number of overall hits (Count)
system.cpu.dcache.overallHits::total          4744955                       # number of overall hits (Count)
system.cpu.dcache.demandMisses::cpu.data        78265                       # number of demand (read+write) misses (Count)
system.cpu.dcache.demandMisses::total           78265                       # number of demand (read+write) misses (Count)
system.cpu.dcache.overallMisses::cpu.data        78265                       # number of overall misses (Count)
system.cpu.dcache.overallMisses::total          78265                       # number of overall misses (Count)
system.cpu.dcache.demandMissLatency::cpu.data   4059855000                       # number of demand (read+write) miss ticks (Tick)
system.cpu.dcache.demandMissLatency::total   4059855000                       # number of demand (read+write) miss ticks (Tick)
system.cpu.dcache.overallMissLatency::cpu.data   4059855000                       # number of overall miss ticks (Tick)
system.cpu.dcache.overallMissLatency::total   4059855000                       # number of overall miss ticks (Tick)
system.cpu.dcache.demandAccesses::cpu.data      4823220                       # number of demand (read+write) accesses (Count)
system.cpu.dcache.demandAccesses::total       4823220                       # number of demand (read+write) accesses (Count)
system.cpu.dcache.overallAccesses::cpu.data      4823220                       # number of overall (read+write) accesses (Count)
system.cpu.dcache.overallAccesses::total      4823220                       # number of overall (read+write) accesses (Count)
system.cpu.dcache.demandMissRate::cpu.data     0.016227                       # miss rate for demand accesses (Ratio)
system.cpu.dcache.demandMissRate::total      0.016227                       # miss rate for demand accesses (Ratio)
system.cpu.dcache.overallMissRate::cpu.data     0.016227                       # miss rate for overall accesses (Ratio)
system.cpu.dcache.overallMissRate::total     0.016227                       # miss rate for overall accesses (Ratio)
system.cpu.dcache.demandAvgMissLatency::cpu.data 51873.187248                       # average overall miss latency in ticks ((Tick/Count))
system.cpu.dcache.demandAvgMissLatency::total 51873.187248                       # average overall miss latency in ticks ((Tick/Count))
system.cpu.dcache.overallAvgMissLatency::cpu.data 51873.187248                       # average overall miss latency ((Tick/Count))
system.cpu.dcache.overallAvgMissLatency::total 51873.187248                       # average overall miss latency ((Tick/Count))
system.cpu.dcache.blockedCycles::no_mshrs            0                       # number of cycles access was blocked (Cycle)
system.cpu.dcache.blockedCycles::no_targets         4835                       # number of cycles access was blocked (Cycle)
system.cpu.dcache.blockedCauses::no_mshrs            0                       # number of times access was blocked (Count)
system.cpu.dcache.blockedCauses::no_targets           16                       # number of times access was blocked (Count)
system.cpu.dcache.avgBlocked::no_mshrs            nan                       # average number of cycles each access was blocked ((Cycle/Count))
system.cpu.dcache.avgBlocked::no_targets   302.187500                       # average number of cycles each access was blocked ((Cycle/Count))
system.cpu.dcache.writebacks::writebacks        10295                       # number of writebacks (Count)
system.cpu.dcache.writebacks::total             10295                       # number of writebacks (Count)
system.cpu.dcache.demandMshrHits::cpu.data        65922                       # number of demand (read+write) MSHR hits (Count)
system.cpu.dcache.demandMshrHits::total         65922                       # number of demand (read+write) MSHR hits (Count)
system.cpu.dcache.overallMshrHits::cpu.data        65922                       # number of overall MSHR hits (Count)
system.cpu.dcache.overallMshrHits::total        65922                       # number of overall MSHR hits (Count)
system.cpu.dcache.demandMshrMisses::cpu.data        12343                       # number of demand (read+write) MSHR misses (Count)
system.cpu.dcache.demandMshrMisses::total        12343                       # number of demand (read+write) MSHR misses (Count)
system.cpu.dcache.overallMshrMisses::cpu.data        12343                       # number of overall MSHR misses (Count)
system.cpu.dcache.overallMshrMisses::total        12343                       # number of overall MSHR misses (Count)
system.cpu.dcache.overallMshrUncacheable::cpu.data            2                       # number of overall MSHR uncacheable misses (Count)
system.cpu.dcache.overallMshrUncacheable::total            2                       # number of overall MSHR uncacheable misses (Count)
system.cpu.dcache.demandMshrMissLatency::cpu.data    771105000                       # number of demand (read+write) MSHR miss ticks (Tick)
system.cpu.dcache.demandMshrMissLatency::total    771105000                       # number of demand (read+write) MSHR miss ticks (Tick)
system.cpu.dcache.overallMshrMissLatency::cpu.data    771105000                       # number of overall MSHR miss ticks (Tick)
system.cpu.dcache.overallMshrMissLatency::total    771105000                       # number of overall MSHR miss ticks (Tick)
system.cpu.dcache.demandMshrMissRate::cpu.data     0.002559                       # mshr miss ratio for demand accesses (Ratio)
system.cpu.dcache.demandMshrMissRate::total     0.002559                       # mshr miss ratio for demand accesses (Ratio)
system.cpu.dcache.overallMshrMissRate::cpu.data     0.002559                       # mshr miss ratio for overall accesses (Ratio)
system.cpu.dcache.overallMshrMissRate::total     0.002559                       # mshr miss ratio for overall accesses (Ratio)
system.cpu.dcache.demandAvgMshrMissLatency::cpu.data 62473.061654                       # average overall mshr miss latency ((Tick/Count))
system.cpu.dcache.demandAvgMshrMissLatency::total 62473.061654                       # average overall mshr miss latency ((Tick/Count))
system.cpu.dcache.overallAvgMshrMissLatency::cpu.data 62473.061654                       # average overall mshr miss latency ((Tick/Count))
system.cpu.dcache.overallAvgMshrMissLatency::total 62473.061654                       # average overall mshr miss latency ((Tick/Count))
system.cpu.dcache.replacements                  10295                       # number of replacements (Count)
system.cpu.dcache.ReadReq.hits::cpu.data      3102733                       # number of ReadReq hits (Count)
system.cpu.dcache.ReadReq.hits::total         3102733                       # number of ReadReq hits (Count)
system.cpu.dcache.ReadReq.misses::cpu.data        53471                       # number of ReadReq misses (Count)
system.cpu.dcache.ReadReq.misses::total         53471                       # number of ReadReq misses (Count)
system.cpu.dcache.ReadReq.missLatency::cpu.data   2535981500                       # number of ReadReq miss ticks (Tick)
system.cpu.dcache.ReadReq.missLatency::total   2535981500                       # number of ReadReq miss ticks (Tick)
system.cpu.dcache.ReadReq.missLatencyDist::samples        53471                       # number of ReadReq miss ticks histogram (Tick)
system.cpu.dcache.ReadReq.missLatencyDist::mean    94.854463                       # number of ReadReq miss ticks histogram (Tick)
system.cpu.dcache.ReadReq.missLatencyDist::stdev   105.012200                       # number of ReadReq miss ticks histogram (Tick)
system.cpu.dcache.ReadReq.missLatencyDist::0-9         2451      4.58%      4.58% # number of ReadReq miss ticks histogram (Tick)
system.cpu.dcache.ReadReq.missLatencyDist::10-19         3088      5.78%     10.36% # number of ReadReq miss ticks histogram (Tick)
system.cpu.dcache.ReadReq.missLatencyDist::20-29         5286      9.89%     20.24% # number of ReadReq miss ticks histogram (Tick)
system.cpu.dcache.ReadReq.missLatencyDist::30-39         4512      8.44%     28.68% # number of ReadReq miss ticks histogram (Tick)
system.cpu.dcache.ReadReq.missLatencyDist::40-49         3688      6.90%     35.58% # number of ReadReq miss ticks histogram (Tick)
system.cpu.dcache.ReadReq.missLatencyDist::50-59         4078      7.63%     43.21% # number of ReadReq miss ticks histogram (Tick)
system.cpu.dcache.ReadReq.missLatencyDist::60-69         1451      2.71%     45.92% # number of ReadReq miss ticks histogram (Tick)
system.cpu.dcache.ReadReq.missLatencyDist::70-79         2482      4.64%     50.56% # number of ReadReq miss ticks histogram (Tick)
system.cpu.dcache.ReadReq.missLatencyDist::80-89         2696      5.04%     55.60% # number of ReadReq miss ticks histogram (Tick)
system.cpu.dcache.ReadReq.missLatencyDist::90-99         1712      3.20%     58.81% # number of ReadReq miss ticks histogram (Tick)
system.cpu.dcache.ReadReq.missLatencyDist::100-109         3123      5.84%     64.65% # number of ReadReq miss ticks histogram (Tick)
system.cpu.dcache.ReadReq.missLatencyDist::110-119         4801      8.98%     73.62% # number of ReadReq miss ticks histogram (Tick)
system.cpu.dcache.ReadReq.missLatencyDist::120-129         7038     13.16%     86.79% # number of ReadReq miss ticks histogram (Tick)
system.cpu.dcache.ReadReq.missLatencyDist::130-139          471      0.88%     87.67% # number of ReadReq miss ticks histogram (Tick)
system.cpu.dcache.ReadReq.missLatencyDist::140-149         2418      4.52%     92.19% # number of ReadReq miss ticks histogram (Tick)
system.cpu.dcache.ReadReq.missLatencyDist::150-159          427      0.80%     92.99% # number of ReadReq miss ticks histogram (Tick)
system.cpu.dcache.ReadReq.missLatencyDist::160-169          204      0.38%     93.37% # number of ReadReq miss ticks histogram (Tick)
system.cpu.dcache.ReadReq.missLatencyDist::170-179          369      0.69%     94.06% # number of ReadReq miss ticks histogram (Tick)
system.cpu.dcache.ReadReq.missLatencyDist::180-189          244      0.46%     94.52% # number of ReadReq miss ticks histogram (Tick)
system.cpu.dcache.ReadReq.missLatencyDist::190-199          103      0.19%     94.71% # number of ReadReq miss ticks histogram (Tick)
system.cpu.dcache.ReadReq.missLatencyDist::200-209          113      0.21%     94.92% # number of ReadReq miss ticks histogram (Tick)
system.cpu.dcache.ReadReq.missLatencyDist::210-219           85      0.16%     95.08% # number of ReadReq miss ticks histogram (Tick)
system.cpu.dcache.ReadReq.missLatencyDist::220-229           72      0.13%     95.21% # number of ReadReq miss ticks histogram (Tick)
system.cpu.dcache.ReadReq.missLatencyDist::230-239           66      0.12%     95.34% # number of ReadReq miss ticks histogram (Tick)
system.cpu.dcache.ReadReq.missLatencyDist::240-249           64      0.12%     95.46% # number of ReadReq miss ticks histogram (Tick)
system.cpu.dcache.ReadReq.missLatencyDist::250-259           66      0.12%     95.58% # number of ReadReq miss ticks histogram (Tick)
system.cpu.dcache.ReadReq.missLatencyDist::260-269           57      0.11%     95.69% # number of ReadReq miss ticks histogram (Tick)
system.cpu.dcache.ReadReq.missLatencyDist::270-279           67      0.13%     95.81% # number of ReadReq miss ticks histogram (Tick)
system.cpu.dcache.ReadReq.missLatencyDist::280-289           64      0.12%     95.93% # number of ReadReq miss ticks histogram (Tick)
system.cpu.dcache.ReadReq.missLatencyDist::290-299           73      0.14%     96.07% # number of ReadReq miss ticks histogram (Tick)
system.cpu.dcache.ReadReq.missLatencyDist::300-309           77      0.14%     96.21% # number of ReadReq miss ticks histogram (Tick)
system.cpu.dcache.ReadReq.missLatencyDist::310-319           58      0.11%     96.32% # number of ReadReq miss ticks histogram (Tick)
system.cpu.dcache.ReadReq.missLatencyDist::320-329           49      0.09%     96.41% # number of ReadReq miss ticks histogram (Tick)
system.cpu.dcache.ReadReq.missLatencyDist::330-339           50      0.09%     96.51% # number of ReadReq miss ticks histogram (Tick)
system.cpu.dcache.ReadReq.missLatencyDist::340-349           34      0.06%     96.57% # number of ReadReq miss ticks histogram (Tick)
system.cpu.dcache.ReadReq.missLatencyDist::350-359           31      0.06%     96.63% # number of ReadReq miss ticks histogram (Tick)
system.cpu.dcache.ReadReq.missLatencyDist::360-369           36      0.07%     96.70% # number of ReadReq miss ticks histogram (Tick)
system.cpu.dcache.ReadReq.missLatencyDist::370-379           39      0.07%     96.77% # number of ReadReq miss ticks histogram (Tick)
system.cpu.dcache.ReadReq.missLatencyDist::380-389           29      0.05%     96.82% # number of ReadReq miss ticks histogram (Tick)
system.cpu.dcache.ReadReq.missLatencyDist::390-399           48      0.09%     96.91% # number of ReadReq miss ticks histogram (Tick)
system.cpu.dcache.ReadReq.missLatencyDist::400-409           46      0.09%     97.00% # number of ReadReq miss ticks histogram (Tick)
system.cpu.dcache.ReadReq.missLatencyDist::410-419           58      0.11%     97.11% # number of ReadReq miss ticks histogram (Tick)
system.cpu.dcache.ReadReq.missLatencyDist::420-429           44      0.08%     97.19% # number of ReadReq miss ticks histogram (Tick)
system.cpu.dcache.ReadReq.missLatencyDist::430-439           57      0.11%     97.30% # number of ReadReq miss ticks histogram (Tick)
system.cpu.dcache.ReadReq.missLatencyDist::440-449           50      0.09%     97.39% # number of ReadReq miss ticks histogram (Tick)
system.cpu.dcache.ReadReq.missLatencyDist::450-459           42      0.08%     97.47% # number of ReadReq miss ticks histogram (Tick)
system.cpu.dcache.ReadReq.missLatencyDist::460-469           40      0.07%     97.54% # number of ReadReq miss ticks histogram (Tick)
system.cpu.dcache.ReadReq.missLatencyDist::470-479           53      0.10%     97.64% # number of ReadReq miss ticks histogram (Tick)
system.cpu.dcache.ReadReq.missLatencyDist::480-489           46      0.09%     97.73% # number of ReadReq miss ticks histogram (Tick)
system.cpu.dcache.ReadReq.missLatencyDist::490-499           61      0.11%     97.84% # number of ReadReq miss ticks histogram (Tick)
system.cpu.dcache.ReadReq.missLatencyDist::500-509           56      0.10%     97.95% # number of ReadReq miss ticks histogram (Tick)
system.cpu.dcache.ReadReq.missLatencyDist::510-519           46      0.09%     98.03% # number of ReadReq miss ticks histogram (Tick)
system.cpu.dcache.ReadReq.missLatencyDist::520-529           49      0.09%     98.12% # number of ReadReq miss ticks histogram (Tick)
system.cpu.dcache.ReadReq.missLatencyDist::530-539           48      0.09%     98.21% # number of ReadReq miss ticks histogram (Tick)
system.cpu.dcache.ReadReq.missLatencyDist::540-549           33      0.06%     98.28% # number of ReadReq miss ticks histogram (Tick)
system.cpu.dcache.ReadReq.missLatencyDist::550-559           30      0.06%     98.33% # number of ReadReq miss ticks histogram (Tick)
system.cpu.dcache.ReadReq.missLatencyDist::560-569           39      0.07%     98.40% # number of ReadReq miss ticks histogram (Tick)
system.cpu.dcache.ReadReq.missLatencyDist::570-579           45      0.08%     98.49% # number of ReadReq miss ticks histogram (Tick)
system.cpu.dcache.ReadReq.missLatencyDist::580-589           54      0.10%     98.59% # number of ReadReq miss ticks histogram (Tick)
system.cpu.dcache.ReadReq.missLatencyDist::590-599           29      0.05%     98.64% # number of ReadReq miss ticks histogram (Tick)
system.cpu.dcache.ReadReq.missLatencyDist::600-609           40      0.07%     98.72% # number of ReadReq miss ticks histogram (Tick)
system.cpu.dcache.ReadReq.missLatencyDist::610-619           36      0.07%     98.79% # number of ReadReq miss ticks histogram (Tick)
system.cpu.dcache.ReadReq.missLatencyDist::620-629           43      0.08%     98.87% # number of ReadReq miss ticks histogram (Tick)
system.cpu.dcache.ReadReq.missLatencyDist::630-639           34      0.06%     98.93% # number of ReadReq miss ticks histogram (Tick)
system.cpu.dcache.ReadReq.missLatencyDist::640-649           34      0.06%     98.99% # number of ReadReq miss ticks histogram (Tick)
system.cpu.dcache.ReadReq.missLatencyDist::650-659           36      0.07%     99.06% # number of ReadReq miss ticks histogram (Tick)
system.cpu.dcache.ReadReq.missLatencyDist::660-669           35      0.07%     99.13% # number of ReadReq miss ticks histogram (Tick)
system.cpu.dcache.ReadReq.missLatencyDist::670-679           48      0.09%     99.22% # number of ReadReq miss ticks histogram (Tick)
system.cpu.dcache.ReadReq.missLatencyDist::680-689           46      0.09%     99.30% # number of ReadReq miss ticks histogram (Tick)
system.cpu.dcache.ReadReq.missLatencyDist::690-699           41      0.08%     99.38% # number of ReadReq miss ticks histogram (Tick)
system.cpu.dcache.ReadReq.missLatencyDist::700-709           37      0.07%     99.45% # number of ReadReq miss ticks histogram (Tick)
system.cpu.dcache.ReadReq.missLatencyDist::710-719           26      0.05%     99.50% # number of ReadReq miss ticks histogram (Tick)
system.cpu.dcache.ReadReq.missLatencyDist::720-729           30      0.06%     99.55% # number of ReadReq miss ticks histogram (Tick)
system.cpu.dcache.ReadReq.missLatencyDist::730-739           39      0.07%     99.63% # number of ReadReq miss ticks histogram (Tick)
system.cpu.dcache.ReadReq.missLatencyDist::740-749           24      0.04%     99.67% # number of ReadReq miss ticks histogram (Tick)
system.cpu.dcache.ReadReq.missLatencyDist::750-759           32      0.06%     99.73% # number of ReadReq miss ticks histogram (Tick)
system.cpu.dcache.ReadReq.missLatencyDist::760-769           25      0.05%     99.78% # number of ReadReq miss ticks histogram (Tick)
system.cpu.dcache.ReadReq.missLatencyDist::770-779           18      0.03%     99.81% # number of ReadReq miss ticks histogram (Tick)
system.cpu.dcache.ReadReq.missLatencyDist::780-789           13      0.02%     99.84% # number of ReadReq miss ticks histogram (Tick)
system.cpu.dcache.ReadReq.missLatencyDist::790-799           18      0.03%     99.87% # number of ReadReq miss ticks histogram (Tick)
system.cpu.dcache.ReadReq.missLatencyDist::800-809           12      0.02%     99.89% # number of ReadReq miss ticks histogram (Tick)
system.cpu.dcache.ReadReq.missLatencyDist::810-819           10      0.02%     99.91% # number of ReadReq miss ticks histogram (Tick)
system.cpu.dcache.ReadReq.missLatencyDist::820-829            9      0.02%     99.93% # number of ReadReq miss ticks histogram (Tick)
system.cpu.dcache.ReadReq.missLatencyDist::830-839           11      0.02%     99.95% # number of ReadReq miss ticks histogram (Tick)
system.cpu.dcache.ReadReq.missLatencyDist::840-849           13      0.02%     99.97% # number of ReadReq miss ticks histogram (Tick)
system.cpu.dcache.ReadReq.missLatencyDist::850-859            7      0.01%     99.99% # number of ReadReq miss ticks histogram (Tick)
system.cpu.dcache.ReadReq.missLatencyDist::860-869            4      0.01%     99.99% # number of ReadReq miss ticks histogram (Tick)
system.cpu.dcache.ReadReq.missLatencyDist::870-879            4      0.01%    100.00% # number of ReadReq miss ticks histogram (Tick)
system.cpu.dcache.ReadReq.missLatencyDist::min_value            5                       # number of ReadReq miss ticks histogram (Tick)
system.cpu.dcache.ReadReq.missLatencyDist::max_value          877                       # number of ReadReq miss ticks histogram (Tick)
system.cpu.dcache.ReadReq.missLatencyDist::total        53471                       # number of ReadReq miss ticks histogram (Tick)
system.cpu.dcache.ReadReq.accesses::cpu.data      3156204                       # number of ReadReq accesses(hits+misses) (Count)
system.cpu.dcache.ReadReq.accesses::total      3156204                       # number of ReadReq accesses(hits+misses) (Count)
system.cpu.dcache.ReadReq.missRate::cpu.data     0.016942                       # miss rate for ReadReq accesses (Ratio)
system.cpu.dcache.ReadReq.missRate::total     0.016942                       # miss rate for ReadReq accesses (Ratio)
system.cpu.dcache.ReadReq.avgMissLatency::cpu.data 47427.231583                       # average ReadReq miss latency ((Tick/Count))
system.cpu.dcache.ReadReq.avgMissLatency::total 47427.231583                       # average ReadReq miss latency ((Tick/Count))
system.cpu.dcache.ReadReq.mshrHits::cpu.data        45142                       # number of ReadReq MSHR hits (Count)
system.cpu.dcache.ReadReq.mshrHits::total        45142                       # number of ReadReq MSHR hits (Count)
system.cpu.dcache.ReadReq.mshrMisses::cpu.data         8329                       # number of ReadReq MSHR misses (Count)
system.cpu.dcache.ReadReq.mshrMisses::total         8329                       # number of ReadReq MSHR misses (Count)
system.cpu.dcache.ReadReq.mshrMissLatency::cpu.data    499189000                       # number of ReadReq MSHR miss ticks (Tick)
system.cpu.dcache.ReadReq.mshrMissLatency::total    499189000                       # number of ReadReq MSHR miss ticks (Tick)
system.cpu.dcache.ReadReq.mshrMissRate::cpu.data     0.002639                       # mshr miss rate for ReadReq accesses (Ratio)
system.cpu.dcache.ReadReq.mshrMissRate::total     0.002639                       # mshr miss rate for ReadReq accesses (Ratio)
system.cpu.dcache.ReadReq.avgMshrMissLatency::cpu.data 59933.845600                       # average ReadReq mshr miss latency ((Tick/Count))
system.cpu.dcache.ReadReq.avgMshrMissLatency::total 59933.845600                       # average ReadReq mshr miss latency ((Tick/Count))
system.cpu.dcache.WriteReq.hits::cpu.data      1642222                       # number of WriteReq hits (Count)
system.cpu.dcache.WriteReq.hits::total        1642222                       # number of WriteReq hits (Count)
system.cpu.dcache.WriteReq.misses::cpu.data        24794                       # number of WriteReq misses (Count)
system.cpu.dcache.WriteReq.misses::total        24794                       # number of WriteReq misses (Count)
system.cpu.dcache.WriteReq.missLatency::cpu.data   1523873500                       # number of WriteReq miss ticks (Tick)
system.cpu.dcache.WriteReq.missLatency::total   1523873500                       # number of WriteReq miss ticks (Tick)
system.cpu.dcache.WriteReq.missLatencyDist::samples        24794                       # number of WriteReq miss ticks histogram (Tick)
system.cpu.dcache.WriteReq.missLatencyDist::mean   122.922764                       # number of WriteReq miss ticks histogram (Tick)
system.cpu.dcache.WriteReq.missLatencyDist::stdev    78.980488                       # number of WriteReq miss ticks histogram (Tick)
system.cpu.dcache.WriteReq.missLatencyDist::0-9          110      0.44%      0.44% # number of WriteReq miss ticks histogram (Tick)
system.cpu.dcache.WriteReq.missLatencyDist::10-19          580      2.34%      2.78% # number of WriteReq miss ticks histogram (Tick)
system.cpu.dcache.WriteReq.missLatencyDist::20-29          475      1.92%      4.70% # number of WriteReq miss ticks histogram (Tick)
system.cpu.dcache.WriteReq.missLatencyDist::30-39          449      1.81%      6.51% # number of WriteReq miss ticks histogram (Tick)
system.cpu.dcache.WriteReq.missLatencyDist::40-49          546      2.20%      8.71% # number of WriteReq miss ticks histogram (Tick)
system.cpu.dcache.WriteReq.missLatencyDist::50-59          496      2.00%     10.71% # number of WriteReq miss ticks histogram (Tick)
system.cpu.dcache.WriteReq.missLatencyDist::60-69          459      1.85%     12.56% # number of WriteReq miss ticks histogram (Tick)
system.cpu.dcache.WriteReq.missLatencyDist::70-79          511      2.06%     14.62% # number of WriteReq miss ticks histogram (Tick)
system.cpu.dcache.WriteReq.missLatencyDist::80-89          643      2.59%     17.22% # number of WriteReq miss ticks histogram (Tick)
system.cpu.dcache.WriteReq.missLatencyDist::90-99          352      1.42%     18.64% # number of WriteReq miss ticks histogram (Tick)
system.cpu.dcache.WriteReq.missLatencyDist::100-109          903      3.64%     22.28% # number of WriteReq miss ticks histogram (Tick)
system.cpu.dcache.WriteReq.missLatencyDist::110-119         5397     21.77%     44.05% # number of WriteReq miss ticks histogram (Tick)
system.cpu.dcache.WriteReq.missLatencyDist::120-129         4977     20.07%     64.12% # number of WriteReq miss ticks histogram (Tick)
system.cpu.dcache.WriteReq.missLatencyDist::130-139         4038     16.29%     80.41% # number of WriteReq miss ticks histogram (Tick)
system.cpu.dcache.WriteReq.missLatencyDist::140-149         3087     12.45%     92.86% # number of WriteReq miss ticks histogram (Tick)
system.cpu.dcache.WriteReq.missLatencyDist::150-159          903      3.64%     96.50% # number of WriteReq miss ticks histogram (Tick)
system.cpu.dcache.WriteReq.missLatencyDist::160-169           77      0.31%     96.81% # number of WriteReq miss ticks histogram (Tick)
system.cpu.dcache.WriteReq.missLatencyDist::170-179          116      0.47%     97.28% # number of WriteReq miss ticks histogram (Tick)
system.cpu.dcache.WriteReq.missLatencyDist::180-189          148      0.60%     97.87% # number of WriteReq miss ticks histogram (Tick)
system.cpu.dcache.WriteReq.missLatencyDist::190-199            2      0.01%     97.88% # number of WriteReq miss ticks histogram (Tick)
system.cpu.dcache.WriteReq.missLatencyDist::200-209            7      0.03%     97.91% # number of WriteReq miss ticks histogram (Tick)
system.cpu.dcache.WriteReq.missLatencyDist::210-219            2      0.01%     97.92% # number of WriteReq miss ticks histogram (Tick)
system.cpu.dcache.WriteReq.missLatencyDist::220-229            6      0.02%     97.94% # number of WriteReq miss ticks histogram (Tick)
system.cpu.dcache.WriteReq.missLatencyDist::230-239            4      0.02%     97.96% # number of WriteReq miss ticks histogram (Tick)
system.cpu.dcache.WriteReq.missLatencyDist::240-249           40      0.16%     98.12% # number of WriteReq miss ticks histogram (Tick)
system.cpu.dcache.WriteReq.missLatencyDist::250-259           39      0.16%     98.28% # number of WriteReq miss ticks histogram (Tick)
system.cpu.dcache.WriteReq.missLatencyDist::260-269            6      0.02%     98.30% # number of WriteReq miss ticks histogram (Tick)
system.cpu.dcache.WriteReq.missLatencyDist::270-279            4      0.02%     98.32% # number of WriteReq miss ticks histogram (Tick)
system.cpu.dcache.WriteReq.missLatencyDist::280-289            7      0.03%     98.35% # number of WriteReq miss ticks histogram (Tick)
system.cpu.dcache.WriteReq.missLatencyDist::290-299            3      0.01%     98.36% # number of WriteReq miss ticks histogram (Tick)
system.cpu.dcache.WriteReq.missLatencyDist::300-309            5      0.02%     98.38% # number of WriteReq miss ticks histogram (Tick)
system.cpu.dcache.WriteReq.missLatencyDist::310-319            8      0.03%     98.41% # number of WriteReq miss ticks histogram (Tick)
system.cpu.dcache.WriteReq.missLatencyDist::320-329            5      0.02%     98.43% # number of WriteReq miss ticks histogram (Tick)
system.cpu.dcache.WriteReq.missLatencyDist::330-339            3      0.01%     98.44% # number of WriteReq miss ticks histogram (Tick)
system.cpu.dcache.WriteReq.missLatencyDist::340-349            3      0.01%     98.46% # number of WriteReq miss ticks histogram (Tick)
system.cpu.dcache.WriteReq.missLatencyDist::350-359            3      0.01%     98.47% # number of WriteReq miss ticks histogram (Tick)
system.cpu.dcache.WriteReq.missLatencyDist::360-369            4      0.02%     98.48% # number of WriteReq miss ticks histogram (Tick)
system.cpu.dcache.WriteReq.missLatencyDist::370-379            6      0.02%     98.51% # number of WriteReq miss ticks histogram (Tick)
system.cpu.dcache.WriteReq.missLatencyDist::380-389            4      0.02%     98.52% # number of WriteReq miss ticks histogram (Tick)
system.cpu.dcache.WriteReq.missLatencyDist::390-399            3      0.01%     98.54% # number of WriteReq miss ticks histogram (Tick)
system.cpu.dcache.WriteReq.missLatencyDist::400-409            2      0.01%     98.54% # number of WriteReq miss ticks histogram (Tick)
system.cpu.dcache.WriteReq.missLatencyDist::410-419            8      0.03%     98.58% # number of WriteReq miss ticks histogram (Tick)
system.cpu.dcache.WriteReq.missLatencyDist::420-429            5      0.02%     98.60% # number of WriteReq miss ticks histogram (Tick)
system.cpu.dcache.WriteReq.missLatencyDist::430-439            5      0.02%     98.62% # number of WriteReq miss ticks histogram (Tick)
system.cpu.dcache.WriteReq.missLatencyDist::440-449            5      0.02%     98.64% # number of WriteReq miss ticks histogram (Tick)
system.cpu.dcache.WriteReq.missLatencyDist::450-459            6      0.02%     98.66% # number of WriteReq miss ticks histogram (Tick)
system.cpu.dcache.WriteReq.missLatencyDist::460-469            6      0.02%     98.69% # number of WriteReq miss ticks histogram (Tick)
system.cpu.dcache.WriteReq.missLatencyDist::470-479            9      0.04%     98.72% # number of WriteReq miss ticks histogram (Tick)
system.cpu.dcache.WriteReq.missLatencyDist::480-489            6      0.02%     98.75% # number of WriteReq miss ticks histogram (Tick)
system.cpu.dcache.WriteReq.missLatencyDist::490-499            5      0.02%     98.77% # number of WriteReq miss ticks histogram (Tick)
system.cpu.dcache.WriteReq.missLatencyDist::500-509            5      0.02%     98.79% # number of WriteReq miss ticks histogram (Tick)
system.cpu.dcache.WriteReq.missLatencyDist::510-519            7      0.03%     98.81% # number of WriteReq miss ticks histogram (Tick)
system.cpu.dcache.WriteReq.missLatencyDist::520-529            8      0.03%     98.85% # number of WriteReq miss ticks histogram (Tick)
system.cpu.dcache.WriteReq.missLatencyDist::530-539            9      0.04%     98.88% # number of WriteReq miss ticks histogram (Tick)
system.cpu.dcache.WriteReq.missLatencyDist::540-549            7      0.03%     98.91% # number of WriteReq miss ticks histogram (Tick)
system.cpu.dcache.WriteReq.missLatencyDist::550-559           14      0.06%     98.97% # number of WriteReq miss ticks histogram (Tick)
system.cpu.dcache.WriteReq.missLatencyDist::560-569            8      0.03%     99.00% # number of WriteReq miss ticks histogram (Tick)
system.cpu.dcache.WriteReq.missLatencyDist::570-579            8      0.03%     99.03% # number of WriteReq miss ticks histogram (Tick)
system.cpu.dcache.WriteReq.missLatencyDist::580-589           12      0.05%     99.08% # number of WriteReq miss ticks histogram (Tick)
system.cpu.dcache.WriteReq.missLatencyDist::590-599            5      0.02%     99.10% # number of WriteReq miss ticks histogram (Tick)
system.cpu.dcache.WriteReq.missLatencyDist::600-609            8      0.03%     99.13% # number of WriteReq miss ticks histogram (Tick)
system.cpu.dcache.WriteReq.missLatencyDist::610-619            5      0.02%     99.15% # number of WriteReq miss ticks histogram (Tick)
system.cpu.dcache.WriteReq.missLatencyDist::620-629           13      0.05%     99.21% # number of WriteReq miss ticks histogram (Tick)
system.cpu.dcache.WriteReq.missLatencyDist::630-639            7      0.03%     99.23% # number of WriteReq miss ticks histogram (Tick)
system.cpu.dcache.WriteReq.missLatencyDist::640-649            9      0.04%     99.27% # number of WriteReq miss ticks histogram (Tick)
system.cpu.dcache.WriteReq.missLatencyDist::650-659            5      0.02%     99.29% # number of WriteReq miss ticks histogram (Tick)
system.cpu.dcache.WriteReq.missLatencyDist::660-669            5      0.02%     99.31% # number of WriteReq miss ticks histogram (Tick)
system.cpu.dcache.WriteReq.missLatencyDist::670-679            6      0.02%     99.33% # number of WriteReq miss ticks histogram (Tick)
system.cpu.dcache.WriteReq.missLatencyDist::680-689            7      0.03%     99.36% # number of WriteReq miss ticks histogram (Tick)
system.cpu.dcache.WriteReq.missLatencyDist::690-699            4      0.02%     99.38% # number of WriteReq miss ticks histogram (Tick)
system.cpu.dcache.WriteReq.missLatencyDist::700-709            5      0.02%     99.40% # number of WriteReq miss ticks histogram (Tick)
system.cpu.dcache.WriteReq.missLatencyDist::710-719            5      0.02%     99.42% # number of WriteReq miss ticks histogram (Tick)
system.cpu.dcache.WriteReq.missLatencyDist::720-729            2      0.01%     99.43% # number of WriteReq miss ticks histogram (Tick)
system.cpu.dcache.WriteReq.missLatencyDist::730-739            4      0.02%     99.44% # number of WriteReq miss ticks histogram (Tick)
system.cpu.dcache.WriteReq.missLatencyDist::740-749            2      0.01%     99.45% # number of WriteReq miss ticks histogram (Tick)
system.cpu.dcache.WriteReq.missLatencyDist::750-759            1      0.00%     99.46% # number of WriteReq miss ticks histogram (Tick)
system.cpu.dcache.WriteReq.missLatencyDist::760-769            1      0.00%     99.46% # number of WriteReq miss ticks histogram (Tick)
system.cpu.dcache.WriteReq.missLatencyDist::770-779            2      0.01%     99.47% # number of WriteReq miss ticks histogram (Tick)
system.cpu.dcache.WriteReq.missLatencyDist::780-789            2      0.01%     99.48% # number of WriteReq miss ticks histogram (Tick)
system.cpu.dcache.WriteReq.missLatencyDist::790-799            3      0.01%     99.49% # number of WriteReq miss ticks histogram (Tick)
system.cpu.dcache.WriteReq.missLatencyDist::810-819            4      0.02%     99.50% # number of WriteReq miss ticks histogram (Tick)
system.cpu.dcache.WriteReq.missLatencyDist::820-829            7      0.03%     99.53% # number of WriteReq miss ticks histogram (Tick)
system.cpu.dcache.WriteReq.missLatencyDist::830-839            5      0.02%     99.55% # number of WriteReq miss ticks histogram (Tick)
system.cpu.dcache.WriteReq.missLatencyDist::840-849            2      0.01%     99.56% # number of WriteReq miss ticks histogram (Tick)
system.cpu.dcache.WriteReq.missLatencyDist::850-859           16      0.06%     99.62% # number of WriteReq miss ticks histogram (Tick)
system.cpu.dcache.WriteReq.missLatencyDist::860-869           39      0.16%     99.78% # number of WriteReq miss ticks histogram (Tick)
system.cpu.dcache.WriteReq.missLatencyDist::870-879           53      0.21%    100.00% # number of WriteReq miss ticks histogram (Tick)
[...]
system.mem_ctrls.dram.totBusLat              22690920                       # Total ticks spent in databus transfers (Tick)
system.mem_ctrls.dram.totMemAccLat          207560180                       # Total ticks spent from burst creation until serviced by the DRAM (Tick)
system.mem_ctrls.dram.avgQLat                12986.73                       # Average queueing delay per DRAM burst ((Tick/Count))
system.mem_ctrls.dram.avgBusLat               3332.00                       # Average bus latency per DRAM burst ((Tick/Count))
system.mem_ctrls.dram.avgMemAccLat           30478.73                       # Average memory access latency per DRAM burst ((Tick/Count))
system.mem_ctrls.dram.readRowHits                6134                       # Number of row buffer hits during reads (Count)
system.mem_ctrls.dram.writeRowHits                874                       # Number of row buffer hits during writes (Count)
system.mem_ctrls.dram.readRowHitRate            90.07                       # Row buffer hit rate for reads (Ratio)
system.mem_ctrls.dram.writeRowHitRate           85.27                       # Row buffer hit rate for writes (Ratio)
system.mem_ctrls.dram.bytesPerActivate::samples          827                       # Bytes accessed per row activation (Byte)
system.mem_ctrls.dram.bytesPerActivate::mean   606.258767                       # Bytes accessed per row activation (Byte)
system.mem_ctrls.dram.bytesPerActivate::gmean   489.584659                       # Bytes accessed per row activation (Byte)
system.mem_ctrls.dram.bytesPerActivate::stdev   306.546341                       # Bytes accessed per row activation (Byte)
system.mem_ctrls.dram.bytesPerActivate::0-127           64      7.74%      7.74% # Bytes accessed per row activation (Byte)
system.mem_ctrls.dram.bytesPerActivate::128-255           55      6.65%     14.39% # Bytes accessed per row activation (Byte)
system.mem_ctrls.dram.bytesPerActivate::256-383           50      6.05%     20.44% # Bytes accessed per row activation (Byte)
system.mem_ctrls.dram.bytesPerActivate::384-511          100     12.09%     32.53% # Bytes accessed per row activation (Byte)
system.mem_ctrls.dram.bytesPerActivate::512-639          174     21.04%     53.57% # Bytes accessed per row activation (Byte)
system.mem_ctrls.dram.bytesPerActivate::640-767          136     16.44%     70.01% # Bytes accessed per row activation (Byte)
system.mem_ctrls.dram.bytesPerActivate::768-895           25      3.02%     73.04% # Bytes accessed per row activation (Byte)
system.mem_ctrls.dram.bytesPerActivate::896-1023           26      3.14%     76.18% # Bytes accessed per row activation (Byte)
system.mem_ctrls.dram.bytesPerActivate::1024-1151          197     23.82%    100.00% # Bytes accessed per row activation (Byte)
system.mem_ctrls.dram.bytesPerActivate::total          827                       # Bytes accessed per row activation (Byte)
system.mem_ctrls.dram.bytesRead                435840                       # Total bytes read (Byte)
system.mem_ctrls.dram.bytesWritten              65600                       # Total bytes written (Byte)
system.mem_ctrls.dram.avgRdBW              152.578437                       # Average DRAM read bandwidth in MiBytes/s ((Byte/Second))
system.mem_ctrls.dram.avgWrBW               22.965183                       # Average DRAM write bandwidth in MiBytes/s ((Byte/Second))
system.mem_ctrls.dram.peakBW                 19207.00                       # Theoretical peak bandwidth in MiByte/s ((Byte/Second))
system.mem_ctrls.dram.busUtil                    0.91                       # Data bus utilization in percentage (Ratio)
system.mem_ctrls.dram.busUtilRead                0.79                       # Data bus utilization in percentage for reads (Ratio)
system.mem_ctrls.dram.busUtilWrite               0.12                       # Data bus utilization in percentage for writes (Ratio)
system.mem_ctrls.dram.pageHitRate               89.44                       # Row buffer hit rate, read and write combined (Ratio)
system.mem_ctrls.dram.power_state.pwrStateResidencyTicks::UNDEFINED   2856498000                       # Cumulative time (in ticks) in various power states (Tick)
system.mem_ctrls.dram.rank0.actEnergy    1094681.952000                       # Energy for activate commands per rank (pJ) (Joule)
system.mem_ctrls.dram.rank0.preEnergy    1459511.961600                       # Energy for precharge commands per rank (pJ) (Joule)
system.mem_ctrls.dram.rank0.readEnergy   11537926.982400                       # Energy for read commands per rank (pJ) (Joule)
system.mem_ctrls.dram.rank0.writeEnergy  1879248.000000                       # Energy for write commands per rank (pJ) (Joule)
system.mem_ctrls.dram.rank0.refreshEnergy 508433589.182402                       # Energy for refresh commands per rank (pJ) (Joule)
system.mem_ctrls.dram.rank0.actBackEnergy 1037330945.582409                       # Energy for active background per rank (pJ) (Joule)
system.mem_ctrls.dram.rank0.preBackEnergy 1067676502.502402                       # Energy for precharge background per rank (pJ) (Joule)
system.mem_ctrls.dram.rank0.actPowerDownEnergy            0                       # Energy for active power-down per rank (pJ) (Joule)
system.mem_ctrls.dram.rank0.prePowerDownEnergy            0                       # Energy for precharge power-down per rank (pJ) (Joule)
system.mem_ctrls.dram.rank0.selfRefreshEnergy            0                       # Energy for self refresh per rank (pJ) (Joule)
system.mem_ctrls.dram.rank0.totalEnergy  2629412406.163208                       # Total energy per rank (pJ) (Joule)
system.mem_ctrls.dram.rank0.averagePower   920.502099                       # Core power per rank (mW) (Watt)
system.mem_ctrls.dram.rank0.totalIdleTime            0                       # Total Idle time Per DRAM Rank (Tick)
system.mem_ctrls.dram.rank0.pwrStateTime::IDLE   1627202824                       # Time in different power states (Tick)
system.mem_ctrls.dram.rank0.pwrStateTime::REF    128450000                       # Time in different power states (Tick)
system.mem_ctrls.dram.rank0.pwrStateTime::SREF            0                       # Time in different power states (Tick)
system.mem_ctrls.dram.rank0.pwrStateTime::PRE_PDN            0                       # Time in different power states (Tick)
system.mem_ctrls.dram.rank0.pwrStateTime::ACT   1100845176                       # Time in different power states (Tick)
system.mem_ctrls.dram.rank0.pwrStateTime::ACT_PDN            0                       # Time in different power states (Tick)
system.mem_ctrls.dram.rank1.actEnergy    1484525.952000                       # Energy for activate commands per rank (pJ) (Joule)
system.mem_ctrls.dram.rank1.preEnergy    1969511.880000                       # Energy for precharge commands per rank (pJ) (Joule)
system.mem_ctrls.dram.rank1.readEnergy   17107090.425600                       # Energy for read commands per rank (pJ) (Joule)
system.mem_ctrls.dram.rank1.writeEnergy  1973210.400000                       # Energy for write commands per rank (pJ) (Joule)
system.mem_ctrls.dram.rank1.refreshEnergy 508433589.182402                       # Energy for refresh commands per rank (pJ) (Joule)
system.mem_ctrls.dram.rank1.actBackEnergy 1535857982.971196                       # Energy for active background per rank (pJ) (Joule)
system.mem_ctrls.dram.rank1.preBackEnergy 684627479.424004                       # Energy for precharge background per rank (pJ) (Joule)
system.mem_ctrls.dram.rank1.actPowerDownEnergy            0                       # Energy for active power-down per rank (pJ) (Joule)
system.mem_ctrls.dram.rank1.prePowerDownEnergy            0                       # Energy for precharge power-down per rank (pJ) (Joule)
system.mem_ctrls.dram.rank1.selfRefreshEnergy            0                       # Energy for self refresh per rank (pJ) (Joule)
system.mem_ctrls.dram.rank1.totalEnergy  2751453390.235201                       # Total energy per rank (pJ) (Joule)
system.mem_ctrls.dram.rank1.averagePower   963.226087                       # Core power per rank (mW) (Watt)
system.mem_ctrls.dram.rank1.totalIdleTime            0                       # Total Idle time Per DRAM Rank (Tick)
system.mem_ctrls.dram.rank1.pwrStateTime::IDLE   1039837312                       # Time in different power states (Tick)
system.mem_ctrls.dram.rank1.pwrStateTime::REF    128450000                       # Time in different power states (Tick)
system.mem_ctrls.dram.rank1.pwrStateTime::SREF            0                       # Time in different power states (Tick)
system.mem_ctrls.dram.rank1.pwrStateTime::PRE_PDN            0                       # Time in different power states (Tick)
system.mem_ctrls.dram.rank1.pwrStateTime::ACT   1688210688                       # Time in different power states (Tick)
system.mem_ctrls.dram.rank1.pwrStateTime::ACT_PDN            0                       # Time in different power states (Tick)
system.mem_ctrls.power_state.pwrStateResidencyTicks::UNDEFINED   2856498000                       # Cumulative time (in ticks) in various power states (Tick)
system.membus.transDist::ReadResp                3529                       # Transaction distribution (Count)
system.membus.transDist::WritebackClean          1076                       # Transaction distribution (Count)
system.membus.transDist::CleanEvict                13                       # Transaction distribution (Count)
system.membus.transDist::ReadExReq               3281                       # Transaction distribution (Count)
system.membus.transDist::ReadExResp              3281                       # Transaction distribution (Count)
system.membus.transDist::ReadCleanReq            3529                       # Transaction distribution (Count)
system.membus.pktCount_system.l2.mem_side_port::system.mem_ctrls.port        14709                       # Packet count per connected requestor and responder (Count)
system.membus.pktCount_system.l2.mem_side_port::total        14709                       # Packet count per connected requestor and responder (Count)
system.membus.pktCount::total                   14709                       # Packet count per connected requestor and responder (Count)
system.membus.pktSize_system.l2.mem_side_port::system.mem_ctrls.port       504704                       # Cumulative packet size per connected requestor and responder (Byte)
system.membus.pktSize_system.l2.mem_side_port::total       504704                       # Cumulative packet size per connected requestor and responder (Byte)
system.membus.pktSize::total                   504704                       # Cumulative packet size per connected requestor and responder (Byte)
system.membus.snoops                                0                       # Total snoops (Count)
system.membus.snoopTraffic                          0                       # Total snoop traffic (Byte)
system.membus.snoopFanout::samples               6810                       # Request fanout histogram (Count)
system.membus.snoopFanout::mean                     0                       # Request fanout histogram (Count)
system.membus.snoopFanout::stdev                    0                       # Request fanout histogram (Count)
system.membus.snoopFanout::underflows               0      0.00%      0.00% # Request fanout histogram (Count)
system.membus.snoopFanout::0                     6810    100.00%    100.00% # Request fanout histogram (Count)
system.membus.snoopFanout::1                        0      0.00%    100.00% # Request fanout histogram (Count)
system.membus.snoopFanout::2                        0      0.00%    100.00% # Request fanout histogram (Count)
system.membus.snoopFanout::overflows                0      0.00%    100.00% # Request fanout histogram (Count)
system.membus.snoopFanout::min_value                0                       # Request fanout histogram (Count)
system.membus.snoopFanout::max_value                0                       # Request fanout histogram (Count)
system.membus.snoopFanout::total                 6810                       # Request fanout histogram (Count)
system.membus.badaddr_responder.power_state.pwrStateResidencyTicks::UNDEFINED   2856498000                       # Cumulative time (in ticks) in various power states (Tick)
system.membus.power_state.pwrStateResidencyTicks::UNDEFINED   2856498000                       # Cumulative time (in ticks) in various power states (Tick)
system.membus.reqLayer1.occupancy            13926500                       # Layer occupancy (ticks) (Tick)
system.membus.reqLayer1.utilization               0.0                       # Layer utilization (Ratio)
system.membus.respLayer2.occupancy           36051100                       # Layer occupancy (ticks) (Tick)
system.membus.respLayer2.utilization              0.0                       # Layer utilization (Ratio)
system.membus.snoop_filter.totRequests           7899                       # Total number of requests made to the snoop filter. (Count)
system.membus.snoop_filter.hitSingleRequests         1089                       # Number of requests hitting in the snoop filter with a single holder of the requested data. (Count)
system.membus.snoop_filter.hitMultiRequests            0                       # Number of requests hitting in the snoop filter with multiple (>1) holders of the requested data. (Count)
system.membus.snoop_filter.totSnoops                0                       # Total number of snoops made to the snoop filter. (Count)
system.membus.snoop_filter.hitSingleSnoops            0                       # Number of snoops hitting in the snoop filter with a single holder of the requested data. (Count)
system.membus.snoop_filter.hitMultiSnoops            0                       # Number of snoops hitting in the snoop filter with multiple (>1) holders of the requested data. (Count)
system.mmcs.power_state.pwrStateResidencyTicks::UNDEFINED   2856498000                       # Cumulative time (in ticks) in various power states (Tick)
system.tol2bus.transDist::ReadResp               3529                       # Transaction distribution (Count)
system.tol2bus.transDist::WritebackDirty         3516                       # Transaction distribution (Count)
system.tol2bus.transDist::WritebackClean         4359                       # Transaction distribution (Count)
system.tol2bus.transDist::CleanEvict               13                       # Transaction distribution (Count)
system.tol2bus.transDist::ReadExReq              3283                       # Transaction distribution (Count)
system.tol2bus.transDist::ReadExResp             3283                       # Transaction distribution (Count)
system.tol2bus.transDist::ReadSharedReq          3529                       # Transaction distribution (Count)
system.tol2bus.pktCount_system.cpu.dcache.mem_side_port::system.l2.cpu_side_port        20397                       # Packet count per connected requestor and responder (Count)
system.tol2bus.pktCount_system.cpu.dtb_walker_cache.mem_side_port::system.l2.cpu_side_port           39                       # Packet count per connected requestor and responder (Count)
system.tol2bus.pktCount::total                  20436                       # Packet count per connected requestor and responder (Count)
system.tol2bus.pktSize_system.cpu.dcache.mem_side_port::system.l2.cpu_side_port       870272                       # Cumulative packet size per connected requestor and responder (Byte)
system.tol2bus.pktSize_system.cpu.dtb_walker_cache.mem_side_port::system.l2.cpu_side_port          832                       # Cumulative packet size per connected requestor and responder (Byte)
system.tol2bus.pktSize::total                  871104                       # Cumulative packet size per connected requestor and responder (Byte)
system.tol2bus.snoops                            1076                       # Total snoops (Count)
system.tol2bus.snoopTraffic                     68864                       # Total snoop traffic (Byte)
system.tol2bus.snoopFanout::samples              7888                       # Request fanout histogram (Count)
system.tol2bus.snoopFanout::mean                    0                       # Request fanout histogram (Count)
system.tol2bus.snoopFanout::stdev                   0                       # Request fanout histogram (Count)
system.tol2bus.snoopFanout::underflows              0      0.00%      0.00% # Request fanout histogram (Count)
system.tol2bus.snoopFanout::0                    7888    100.00%    100.00% # Request fanout histogram (Count)
system.tol2bus.snoopFanout::1                       0      0.00%    100.00% # Request fanout histogram (Count)
system.tol2bus.snoopFanout::2                       0      0.00%    100.00% # Request fanout histogram (Count)
system.tol2bus.snoopFanout::3                       0      0.00%    100.00% # Request fanout histogram (Count)
system.tol2bus.snoopFanout::4                       0      0.00%    100.00% # Request fanout histogram (Count)
system.tol2bus.snoopFanout::overflows               0      0.00%    100.00% # Request fanout histogram (Count)
system.tol2bus.snoopFanout::min_value               0                       # Request fanout histogram (Count)
system.tol2bus.snoopFanout::max_value               0                       # Request fanout histogram (Count)
system.tol2bus.snoopFanout::total                7888                       # Request fanout histogram (Count)
system.tol2bus.power_state.pwrStateResidencyTicks::UNDEFINED   2856498000                       # Cumulative time (in ticks) in various power states (Tick)
system.tol2bus.reqLayer0.occupancy           10211500                       # Layer occupancy (ticks) (Tick)
system.tol2bus.reqLayer0.utilization              0.0                       # Layer utilization (Ratio)
system.tol2bus.respLayer1.occupancy           6799000                       # Layer occupancy (ticks) (Tick)
system.tol2bus.respLayer1.utilization             0.0                       # Layer utilization (Ratio)
system.tol2bus.respLayer3.occupancy             13000                       # Layer occupancy (ticks) (Tick)
system.tol2bus.respLayer3.utilization             0.0                       # Layer utilization (Ratio)
system.tol2bus.snoop_filter.totRequests         13624                       # Total number of requests made to the snoop filter. (Count)
system.tol2bus.snoop_filter.hitSingleRequests         6812                       # Number of requests hitting in the snoop filter with a single holder of the requested data. (Count)
system.tol2bus.snoop_filter.hitMultiRequests            0                       # Number of requests hitting in the snoop filter with multiple (>1) holders of the requested data. (Count)
system.tol2bus.snoop_filter.totSnoops               0                       # Total number of snoops made to the snoop filter. (Count)
system.tol2bus.snoop_filter.hitSingleSnoops            0                       # Number of snoops hitting in the snoop filter with a single holder of the requested data. (Count)
system.tol2bus.snoop_filter.hitMultiSnoops            0                       # Number of snoops hitting in the snoop filter with multiple (>1) holders of the requested data. (Count)
system.uartlite.power_state.pwrStateResidencyTicks::UNDEFINED   2856498000                       # Cumulative time (in ticks) in various power states (Tick)
system.voltage_domain.voltage                       1                       # Voltage in Volts (Volt)
system.workload.inst.arm                            0                       # number of arm instructions executed (Count)
system.workload.inst.quiesce                        0                       # number of quiesce instructions executed (Count)

---------- End Simulation Statistics   ----------
