
---------- Begin Simulation Statistics ----------
simSeconds                                   0.003061                       # Number of seconds simulated (Second)
simTicks                                   3061389000                       # Number of ticks simulated (Tick)
finalTick                                  3061389000                       # Number of ticks from beginning of simulation (restored from checkpoints and never reset) (Tick)
simFreq                                  1000000000000                       # The number of ticks per simulated second ((Tick/Second))
hostSeconds                                     69.67                       # Real time elapsed on the host (Second)
hostTickRate                                 43942999                       # The number of ticks simulated per host second (ticks/s) ((Tick/Second))
hostMemory                                   16927968                       # Number of bytes of host memory used (Byte)
simInsts                                     10000005                       # Number of instructions simulated (Count)
simOps                                       10000367                       # Number of ops (including micro ops) simulated (Count)
hostInstRate                                   143539                       # Simulator instruction rate (inst/s) ((Count/Second))
hostOpRate                                     143544                       # Simulator op (including micro ops) rate (op/s) ((Count/Second))
system.bridge.power_state.pwrStateResidencyTicks::UNDEFINED   3061389000                       # Cumulative time (in ticks) in various power states (Tick)
system.clk_domain.clock                          1000                       # Clock period in ticks (Tick)
system.cpu.numCycles                          6122779                       # Number of cpu cycles simulated (Cycle)
system.cpu.numWorkItemsStarted                      0                       # Number of work items this cpu started (Count)
system.cpu.numWorkItemsCompleted                    0                       # Number of work items this cpu completed (Count)
system.cpu.instsAdded                        11367520                       # Number of instructions added to the IQ (excludes non-spec) (Count)
system.cpu.nonSpecInstsAdded                     7686                       # Number of non-speculative instructions added to the IQ (Count)
system.cpu.instsIssued                       10611417                       # Number of instructions issued (Count)
system.cpu.squashedInstsIssued                  42224                       # Number of squashed instructions issued (Count)
system.cpu.squashedInstsExamined              1778015                       # Number of squashed instructions iterated over during squash; mainly for profiling (Count)
system.cpu.squashedOperandsExamined           1331225                       # Number of squashed operands that are examined and possibly removed from graph (Count)
system.cpu.squashedNonSpecRemoved                1344                       # Number of squashed non-spec instructions that were removed (Count)
system.cpu.numIssuedDist::samples             6026463                       # Number of insts issued each cycle (Count)
system.cpu.numIssuedDist::mean               1.760803                       # Number of insts issued each cycle (Count)
system.cpu.numIssuedDist::stdev              1.927796                       # Number of insts issued each cycle (Count)
system.cpu.numIssuedDist::underflows                0      0.00%      0.00% # Number of insts issued each cycle (Count)
system.cpu.numIssuedDist::0                   2296668     38.11%     38.11% # Number of insts issued each cycle (Count)
system.cpu.numIssuedDist::1                    933749     15.49%     53.60% # Number of insts issued each cycle (Count)
system.cpu.numIssuedDist::2                    975678     16.19%     69.79% # Number of insts issued each cycle (Count)
system.cpu.numIssuedDist::3                    716547     11.89%     81.68% # Number of insts issued each cycle (Count)
system.cpu.numIssuedDist::4                    489311      8.12%     89.80% # Number of insts issued each cycle (Count)
system.cpu.numIssuedDist::5                    291158      4.83%     94.63% # Number of insts issued each cycle (Count)
system.cpu.numIssuedDist::6                    170601      2.83%     97.47% # Number of insts issued each cycle (Count)
system.cpu.numIssuedDist::7                     81977      1.36%     98.83% # Number of insts issued each cycle (Count)
system.cpu.numIssuedDist::8                     70774      1.17%    100.00% # Number of insts issued each cycle (Count)
system.cpu.numIssuedDist::overflows                 0      0.00%    100.00% # Number of insts issued each cycle (Count)
system.cpu.numIssuedDist::min_value                 0                       # Number of insts issued each cycle (Count)
system.cpu.numIssuedDist::max_value                 8                       # Number of insts issued each cycle (Count)
system.cpu.numIssuedDist::total               6026463                       # Number of insts issued each cycle (Count)
system.cpu.statFuBusy::No_OpClass                   0      0.00%      0.00% # attempts to use FU when none available (Count)
system.cpu.statFuBusy::IntAlu                   27267      3.50%      3.50% # attempts to use FU when none available (Count)
system.cpu.statFuBusy::IntMult                      0      0.00%      3.50% # attempts to use FU when none available (Count)
system.cpu.statFuBusy::IntDiv                       0      0.00%      3.50% # attempts to use FU when none available (Count)
system.cpu.statFuBusy::FloatAdd                     0      0.00%      3.50% # attempts to use FU when none available (Count)
system.cpu.statFuBusy::FloatCmp                     0      0.00%      3.50% # attempts to use FU when none available (Count)
system.cpu.statFuBusy::FloatCvt                     0      0.00%      3.50% # attempts to use FU when none available (Count)
system.cpu.statFuBusy::FloatMult                    0      0.00%      3.50% # attempts to use FU when none available (Count)
system.cpu.statFuBusy::FloatMultAcc                 0      0.00%      3.50% # attempts to use FU when none available (Count)
system.cpu.statFuBusy::FloatDiv                     0      0.00%      3.50% # attempts to use FU when none available (Count)
system.cpu.statFuBusy::FloatMisc                    0      0.00%      3.50% # attempts to use FU when none available (Count)
system.cpu.statFuBusy::FloatSqrt                    0      0.00%      3.50% # attempts to use FU when none available (Count)
system.cpu.statFuBusy::SimdAdd                      0      0.00%      3.50% # attempts to use FU when none available (Count)
system.cpu.statFuBusy::SimdAddAcc                   0      0.00%      3.50% # attempts to use FU when none available (Count)
system.cpu.statFuBusy::SimdAlu                      0      0.00%      3.50% # attempts to use FU when none available (Count)
system.cpu.statFuBusy::SimdCmp                      0      0.00%      3.50% # attempts to use FU when none available (Count)
system.cpu.statFuBusy::SimdCvt                      0      0.00%      3.50% # attempts to use FU when none available (Count)
system.cpu.statFuBusy::SimdMisc                     0      0.00%      3.50% # attempts to use FU when none available (Count)
system.cpu.statFuBusy::SimdMult                     0      0.00%      3.50% # attempts to use FU when none available (Count)
system.cpu.statFuBusy::SimdMultAcc                  0      0.00%      3.50% # attempts to use FU when none available (Count)
system.cpu.statFuBusy::SimdShift                    0      0.00%      3.50% # attempts to use FU when none available (Count)
system.cpu.statFuBusy::SimdShiftAcc                 0      0.00%      3.50% # attempts to use FU when none available (Count)
system.cpu.statFuBusy::SimdDiv                      0      0.00%      3.50% # attempts to use FU when none available (Count)
system.cpu.statFuBusy::SimdSqrt                     0      0.00%      3.50% # attempts to use FU when none available (Count)
system.cpu.statFuBusy::SimdFloatAdd                 0      0.00%      3.50% # attempts to use FU when none available (Count)
system.cpu.statFuBusy::SimdFloatAlu                 0      0.00%      3.50% # attempts to use FU when none available (Count)
system.cpu.statFuBusy::SimdFloatCmp                 0      0.00%      3.50% # attempts to use FU when none available (Count)
system.cpu.statFuBusy::SimdFloatCvt                 0      0.00%      3.50% # attempts to use FU when none available (Count)
system.cpu.statFuBusy::SimdFloatDiv                 0      0.00%      3.50% # attempts to use FU when none available (Count)
system.cpu.statFuBusy::SimdFloatMisc                0      0.00%      3.50% # attempts to use FU when none available (Count)
system.cpu.statFuBusy::SimdFloatMult                0      0.00%      3.50% # attempts to use FU when none available (Count)
system.cpu.statFuBusy::SimdFloatMultAcc             0      0.00%      3.50% # attempts to use FU when none available (Count)
system.cpu.statFuBusy::SimdFloatSqrt                0      0.00%      3.50% # attempts to use FU when none available (Count)
system.cpu.statFuBusy::SimdReduceAdd                0      0.00%      3.50% # attempts to use FU when none available (Count)
system.cpu.statFuBusy::SimdReduceAlu                0      0.00%      3.50% # attempts to use FU when none available (Count)
system.cpu.statFuBusy::SimdReduceCmp                0      0.00%      3.50% # attempts to use FU when none available (Count)
system.cpu.statFuBusy::SimdFloatReduceAdd            0      0.00%      3.50% # attempts to use FU when none available (Count)
system.cpu.statFuBusy::SimdFloatReduceCmp            0      0.00%      3.50% # attempts to use FU when none available (Count)
system.cpu.statFuBusy::SimdAes                      0      0.00%      3.50% # attempts to use FU when none available (Count)
system.cpu.statFuBusy::SimdAesMix                   0      0.00%      3.50% # attempts to use FU when none available (Count)
system.cpu.statFuBusy::SimdSha1Hash                 0      0.00%      3.50% # attempts to use FU when none available (Count)
system.cpu.statFuBusy::SimdSha1Hash2                0      0.00%      3.50% # attempts to use FU when none available (Count)
system.cpu.statFuBusy::SimdSha256Hash               0      0.00%      3.50% # attempts to use FU when none available (Count)
system.cpu.statFuBusy::SimdSha256Hash2              0      0.00%      3.50% # attempts to use FU when none available (Count)
system.cpu.statFuBusy::SimdShaSigma2                0      0.00%      3.50% # attempts to use FU when none available (Count)
system.cpu.statFuBusy::SimdShaSigma3                0      0.00%      3.50% # attempts to use FU when none available (Count)
system.cpu.statFuBusy::SimdPredAlu                  0      0.00%      3.50% # attempts to use FU when none available (Count)
system.cpu.statFuBusy::MemRead                 628433     80.69%     84.19% # attempts to use FU when none available (Count)
system.cpu.statFuBusy::MemWrite                123124     15.81%    100.00% # attempts to use FU when none available (Count)
system.cpu.statFuBusy::FloatMemRead                15      0.00%    100.00% # attempts to use FU when none available (Count)
system.cpu.statFuBusy::FloatMemWrite                0      0.00%    100.00% # attempts to use FU when none available (Count)
system.cpu.statFuBusy::IprAccess                    0      0.00%    100.00% # attempts to use FU when none available (Count)
system.cpu.statFuBusy::InstPrefetch                 0      0.00%    100.00% # attempts to use FU when none available (Count)
system.cpu.statFuBusy::FMAMul                       0      0.00%    100.00% # attempts to use FU when none available (Count)
system.cpu.statFuBusy::FMAAcc                       0      0.00%    100.00% # attempts to use FU when none available (Count)
system.cpu.statIssuedInstType_0::No_OpClass        10184      0.10%      0.10% # Number of instructions issued per FU type, per thread (Count)
system.cpu.statIssuedInstType_0::IntAlu       6217880     58.60%     58.69% # Number of instructions issued per FU type, per thread (Count)
system.cpu.statIssuedInstType_0::IntMult          264      0.00%     58.69% # Number of instructions issued per FU type, per thread (Count)
system.cpu.statIssuedInstType_0::IntDiv           200      0.00%     58.70% # Number of instructions issued per FU type, per thread (Count)
system.cpu.statIssuedInstType_0::FloatAdd            0      0.00%     58.70% # Number of instructions issued per FU type, per thread (Count)
system.cpu.statIssuedInstType_0::FloatCmp            0      0.00%     58.70% # Number of instructions issued per FU type, per thread (Count)
system.cpu.statIssuedInstType_0::FloatCvt            7      0.00%     58.70% # Number of instructions issued per FU type, per thread (Count)
system.cpu.statIssuedInstType_0::FloatMult            0      0.00%     58.70% # Number of instructions issued per FU type, per thread (Count)
system.cpu.statIssuedInstType_0::FloatMultAcc            0      0.00%     58.70% # Number of instructions issued per FU type, per thread (Count)
system.cpu.statIssuedInstType_0::FloatDiv            0      0.00%     58.70% # Number of instructions issued per FU type, per thread (Count)
system.cpu.statIssuedInstType_0::FloatMisc            0      0.00%     58.70% # Number of instructions issued per FU type, per thread (Count)
system.cpu.statIssuedInstType_0::FloatSqrt            0      0.00%     58.70% # Number of instructions issued per FU type, per thread (Count)
system.cpu.statIssuedInstType_0::SimdAdd            0      0.00%     58.70% # Number of instructions issued per FU type, per thread (Count)
system.cpu.statIssuedInstType_0::SimdAddAcc            0      0.00%     58.70% # Number of instructions issued per FU type, per thread (Count)
system.cpu.statIssuedInstType_0::SimdAlu            0      0.00%     58.70% # Number of instructions issued per FU type, per thread (Count)
system.cpu.statIssuedInstType_0::SimdCmp            0      0.00%     58.70% # Number of instructions issued per FU type, per thread (Count)
system.cpu.statIssuedInstType_0::SimdCvt            0      0.00%     58.70% # Number of instructions issued per FU type, per thread (Count)
system.cpu.statIssuedInstType_0::SimdMisc            0      0.00%     58.70% # Number of instructions issued per FU type, per thread (Count)
system.cpu.statIssuedInstType_0::SimdMult            0      0.00%     58.70% # Number of instructions issued per FU type, per thread (Count)
system.cpu.statIssuedInstType_0::SimdMultAcc            0      0.00%     58.70% # Number of instructions issued per FU type, per thread (Count)
system.cpu.statIssuedInstType_0::SimdShift            0      0.00%     58.70% # Number of instructions issued per FU type, per thread (Count)
system.cpu.statIssuedInstType_0::SimdShiftAcc            0      0.00%     58.70% # Number of instructions issued per FU type, per thread (Count)
system.cpu.statIssuedInstType_0::SimdDiv            0      0.00%     58.70% # Number of instructions issued per FU type, per thread (Count)
system.cpu.statIssuedInstType_0::SimdSqrt            0      0.00%     58.70% # Number of instructions issued per FU type, per thread (Count)
system.cpu.statIssuedInstType_0::SimdFloatAdd            0      0.00%     58.70% # Number of instructions issued per FU type, per thread (Count)
system.cpu.statIssuedInstType_0::SimdFloatAlu            0      0.00%     58.70% # Number of instructions issued per FU type, per thread (Count)
system.cpu.statIssuedInstType_0::SimdFloatCmp            0      0.00%     58.70% # Number of instructions issued per FU type, per thread (Count)
system.cpu.statIssuedInstType_0::SimdFloatCvt            0      0.00%     58.70% # Number of instructions issued per FU type, per thread (Count)
system.cpu.statIssuedInstType_0::SimdFloatDiv            0      0.00%     58.70% # Number of instructions issued per FU type, per thread (Count)
system.cpu.statIssuedInstType_0::SimdFloatMisc            0      0.00%     58.70% # Number of instructions issued per FU type, per thread (Count)
system.cpu.statIssuedInstType_0::SimdFloatMult            0      0.00%     58.70% # Number of instructions issued per FU type, per thread (Count)
system.cpu.statIssuedInstType_0::SimdFloatMultAcc            0      0.00%     58.70% # Number of instructions issued per FU type, per thread (Count)
system.cpu.statIssuedInstType_0::SimdFloatSqrt            0      0.00%     58.70% # Number of instructions issued per FU type, per thread (Count)
system.cpu.statIssuedInstType_0::SimdReduceAdd            0      0.00%     58.70% # Number of instructions issued per FU type, per thread (Count)
system.cpu.statIssuedInstType_0::SimdReduceAlu            0      0.00%     58.70% # Number of instructions issued per FU type, per thread (Count)
system.cpu.statIssuedInstType_0::SimdReduceCmp            0      0.00%     58.70% # Number of instructions issued per FU type, per thread (Count)
system.cpu.statIssuedInstType_0::SimdFloatReduceAdd            0      0.00%     58.70% # Number of instructions issued per FU type, per thread (Count)
system.cpu.statIssuedInstType_0::SimdFloatReduceCmp            0      0.00%     58.70% # Number of instructions issued per FU type, per thread (Count)
system.cpu.statIssuedInstType_0::SimdAes            0      0.00%     58.70% # Number of instructions issued per FU type, per thread (Count)
system.cpu.statIssuedInstType_0::SimdAesMix            0      0.00%     58.70% # Number of instructions issued per FU type, per thread (Count)
system.cpu.statIssuedInstType_0::SimdSha1Hash            0      0.00%     58.70% # Number of instructions issued per FU type, per thread (Count)
system.cpu.statIssuedInstType_0::SimdSha1Hash2            0      0.00%     58.70% # Number of instructions issued per FU type, per thread (Count)
system.cpu.statIssuedInstType_0::SimdSha256Hash            0      0.00%     58.70% # Number of instructions issued per FU type, per thread (Count)
system.cpu.statIssuedInstType_0::SimdSha256Hash2            0      0.00%     58.70% # Number of instructions issued per FU type, per thread (Count)
system.cpu.statIssuedInstType_0::SimdShaSigma2            0      0.00%     58.70% # Number of instructions issued per FU type, per thread (Count)
system.cpu.statIssuedInstType_0::SimdShaSigma3            0      0.00%     58.70% # Number of instructions issued per FU type, per thread (Count)
system.cpu.statIssuedInstType_0::SimdPredAlu            0      0.00%     58.70% # Number of instructions issued per FU type, per thread (Count)
system.cpu.statIssuedInstType_0::MemRead      2797128     26.36%     85.06% # Number of instructions issued per FU type, per thread (Count)
system.cpu.statIssuedInstType_0::MemWrite      1585719     14.94%    100.00% # Number of instructions issued per FU type, per thread (Count)
system.cpu.statIssuedInstType_0::FloatMemRead           35      0.00%    100.00% # Number of instructions issued per FU type, per thread (Count)
system.cpu.statIssuedInstType_0::FloatMemWrite            0      0.00%    100.00% # Number of instructions issued per FU type, per thread (Count)
system.cpu.statIssuedInstType_0::IprAccess            0      0.00%    100.00% # Number of instructions issued per FU type, per thread (Count)
system.cpu.statIssuedInstType_0::InstPrefetch            0      0.00%    100.00% # Number of instructions issued per FU type, per thread (Count)
system.cpu.statIssuedInstType_0::FMAMul             0      0.00%    100.00% # Number of instructions issued per FU type, per thread (Count)
system.cpu.statIssuedInstType_0::FMAAcc             0      0.00%    100.00% # Number of instructions issued per FU type, per thread (Count)
system.cpu.statIssuedInstType_0::total       10611417                       # Number of instructions issued per FU type, per thread (Count)
system.cpu.issueRate                         1.733105                       # Inst issue rate ((Count/Cycle))
system.cpu.fuBusy                              778839                       # FU busy when requested (Count)
system.cpu.fuBusyRate                        0.073396                       # FU busy rate (busy events/executed inst) ((Count/Count))
system.cpu.intInstQueueReads                 28070249                       # Number of integer instruction queue reads (Count)
system.cpu.intInstQueueWrites                13167034                       # Number of integer instruction queue writes (Count)
system.cpu.intInstQueueWakeupAccesses        10430279                       # Number of integer instruction queue wakeup accesses (Count)
system.cpu.fpInstQueueReads                       101                       # Number of floating instruction queue reads (Count)
system.cpu.fpInstQueueWrites                       82                       # Number of floating instruction queue writes (Count)
system.cpu.fpInstQueueWakeupAccesses               39                       # Number of floating instruction queue wakeup accesses (Count)
system.cpu.vecInstQueueReads                        0                       # Number of vector instruction queue reads (Count)
system.cpu.vecInstQueueWrites                       0                       # Number of vector instruction queue writes (Count)
system.cpu.vecInstQueueWakeupAccesses               0                       # Number of vector instruction queue wakeup accesses (Count)
system.cpu.intAluAccesses                    11380015                       # Number of integer alu accesses (Count)
system.cpu.fpAluAccesses                           57                       # Number of floating point alu accesses (Count)
system.cpu.vecAluAccesses                           0                       # Number of vector alu accesses (Count)
system.cpu.numInsts                          10464541                       # Number of executed instructions (Count)
system.cpu.numLoadInsts                       2722395                       # Number of load instructions executed (Count)
system.cpu.numSquashedInsts                    114491                       # Number of squashed instructions skipped in execute (Count)
system.cpu.numSwp                                   0                       # Number of swp insts executed (Count)
system.cpu.numNop                              498037                       # Number of nop insts executed (Count)
system.cpu.numRefs                            4270005                       # Number of memory reference insts executed (Count)
system.cpu.numBranches                        1932674                       # Number of branches executed (Count)
system.cpu.numStoreInsts                      1547610                       # Number of stores executed (Count)
system.cpu.numRate                           1.709116                       # Inst execution rate ((Count/Cycle))
system.cpu.timesIdled                            1781                       # Number of times that the entire CPU went into an idle state and unscheduled itself (Count)
system.cpu.idleCycles                           96316                       # Total number of cycles that the CPU has spent unscheduled due to idling (Cycle)
system.cpu.committedInsts                    10000005                       # Number of Instructions Simulated (Count)
system.cpu.committedOps                      10000367                       # Number of Ops (including micro ops) Simulated (Count)
system.cpu.cpi                               0.612278                       # CPI: Cycles Per Instruction ((Cycle/Count))
system.cpu.totalCpi                          0.612278                       # CPI: Total CPI of All Threads ((Cycle/Count))
system.cpu.ipc                               1.633246                       # IPC: Instructions Per Cycle ((Count/Cycle))
system.cpu.totalIpc                          1.633246                       # IPC: Total IPC of All Threads ((Count/Cycle))
system.cpu.intRegfileReads                   13201520                       # Number of integer regfile reads (Count)
system.cpu.intRegfileWrites                   7134780                       # Number of integer regfile writes (Count)
system.cpu.fpRegfileReads                          32                       # Number of floating regfile reads (Count)
system.cpu.fpRegfileWrites                         39                       # Number of floating regfile writes (Count)
system.cpu.miscRegfileReads                  91660417                       # number of misc regfile reads (Count)
system.cpu.miscRegfileWrites                     4952                       # number of misc regfile writes (Count)
system.cpu.lastCommitTick                  3061389000                       # The last tick to commit an instruction (Count)
system.cpu.MemDepUnit__0.insertedLoads        2991311                       # Number of loads inserted to the mem dependence unit. (Count)
system.cpu.MemDepUnit__0.insertedStores       1765087                       # Number of stores inserted to the mem dependence unit. (Count)
system.cpu.MemDepUnit__0.conflictingLoads      1256435                       # Number of conflicting loads. (Count)
system.cpu.MemDepUnit__0.conflictingStores       836257                       # Number of conflicting stores. (Count)
system.cpu.MemDepUnit__1.insertedLoads              0                       # Number of loads inserted to the mem dependence unit. (Count)
system.cpu.MemDepUnit__1.insertedStores             0                       # Number of stores inserted to the mem dependence unit. (Count)
system.cpu.MemDepUnit__1.conflictingLoads            0                       # Number of conflicting loads. (Count)
system.cpu.MemDepUnit__1.conflictingStores            0                       # Number of conflicting stores. (Count)
system.cpu.MemDepUnit__2.insertedLoads              0                       # Number of loads inserted to the mem dependence unit. (Count)
system.cpu.MemDepUnit__2.insertedStores             0                       # Number of stores inserted to the mem dependence unit. (Count)
system.cpu.MemDepUnit__2.conflictingLoads            0                       # Number of conflicting loads. (Count)
system.cpu.MemDepUnit__2.conflictingStores            0                       # Number of conflicting stores. (Count)
system.cpu.MemDepUnit__3.insertedLoads              0                       # Number of loads inserted to the mem dependence unit. (Count)
system.cpu.MemDepUnit__3.insertedStores             0                       # Number of stores inserted to the mem dependence unit. (Count)
system.cpu.MemDepUnit__3.conflictingLoads            0                       # Number of conflicting loads. (Count)
system.cpu.MemDepUnit__3.conflictingStores            0                       # Number of conflicting stores. (Count)
system.cpu.branchPred.lookups                 2891013                       # Number of BP lookups (Count)
system.cpu.branchPred.condPredicted           2232469                       # Number of conditional branches predicted (Count)
system.cpu.branchPred.condIncorrect             33349                       # Number of conditional branches incorrect (Count)
system.cpu.branchPred.BTBLookups              1107778                       # Number of BTB lookups (Count)
system.cpu.branchPred.BTBHits                 1088345                       # Number of BTB hits (Count)
system.cpu.branchPred.BTBHitRatio            0.982458                       # BTB Hit Ratio (Ratio)
system.cpu.branchPred.RASUsed                  260568                       # Number of times the RAS was used to get a target. (Count)
system.cpu.branchPred.RASIncorrect               1484                       # Number of incorrect RAS predictions. (Count)
system.cpu.branchPred.indirectLookups          143450                       # Number of indirect predictor lookups. (Count)
system.cpu.branchPred.indirectHits             143450                       # Number of indirect target hits. (Count)
system.cpu.branchPred.indirectMisses                0                       # Number of indirect misses. (Count)
system.cpu.branchPred.indirectMispredicted         1465                       # Number of mispredicted indirect branches. (Count)
system.cpu.branchPred.indirectBranchPred.mainlookupHit       133871                       # ittage the provider component lookup hit (Count)
system.cpu.branchPred.tage.longestMatchProviderCorrect       478969                       # Number of times TAGE Longest Match is the provider and the prediction is correct (Count)
system.cpu.branchPred.tage.altMatchProviderCorrect         7559                       # Number of times TAGE Alt Match is the provider and the prediction is correct (Count)
system.cpu.branchPred.tage.bimodalAltMatchProviderCorrect         1102                       # Number of times TAGE Alt Match is the bimodal and it is the provider and the prediction is correct (Count)
system.cpu.branchPred.tage.bimodalProviderCorrect       834174                       # Number of times there are no hits on the TAGE tables and the bimodal prediction is correct (Count)
system.cpu.branchPred.tage.longestMatchProviderWrong        12003                       # Number of times TAGE Longest Match is the provider and the prediction is wrong (Count)
system.cpu.branchPred.tage.altMatchProviderWrong         2715                       # Number of times TAGE Alt Match is the provider and the prediction is wrong (Count)
system.cpu.branchPred.tage.bimodalAltMatchProviderWrong          595                       # Number of times TAGE Alt Match is the bimodal and it is the provider and the prediction is wrong (Count)
system.cpu.branchPred.tage.bimodalProviderWrong         1933                       # Number of times there are no hits on the TAGE tables and the bimodal prediction is wrong (Count)
system.cpu.branchPred.tage.altMatchProviderWouldHaveHit         1817                       # Number of times TAGE Longest Match is the provider, the prediction is wrong and Alt Match prediction was correct (Count)
system.cpu.branchPred.tage.longestMatchProviderWouldHaveHit         1931                       # Number of times TAGE Alt Match is the provider, the prediction is wrong and Longest Match prediction was correct (Count)
system.cpu.branchPred.tage.longestMatchProvider::0            0                       # TAGE provider for longest match (Count)
system.cpu.branchPred.tage.longestMatchProvider::1       111893                       # TAGE provider for longest match (Count)
system.cpu.branchPred.tage.longestMatchProvider::2        65830                       # TAGE provider for longest match (Count)
system.cpu.branchPred.tage.longestMatchProvider::3        45942                       # TAGE provider for longest match (Count)
system.cpu.branchPred.tage.longestMatchProvider::4        56071                       # TAGE provider for longest match (Count)
system.cpu.branchPred.tage.longestMatchProvider::5        77347                       # TAGE provider for longest match (Count)
system.cpu.branchPred.tage.longestMatchProvider::6        63251                       # TAGE provider for longest match (Count)
system.cpu.branchPred.tage.longestMatchProvider::7        80912                       # TAGE provider for longest match (Count)
system.cpu.branchPred.tage.altMatchProvider::0       183473                       # TAGE provider for alt match (Count)
system.cpu.branchPred.tage.altMatchProvider::1        42004                       # TAGE provider for alt match (Count)
system.cpu.branchPred.tage.altMatchProvider::2        21960                       # TAGE provider for alt match (Count)
system.cpu.branchPred.tage.altMatchProvider::3        49348                       # TAGE provider for alt match (Count)
system.cpu.branchPred.tage.altMatchProvider::4        81101                       # TAGE provider for alt match (Count)
system.cpu.branchPred.tage.altMatchProvider::5        70197                       # TAGE provider for alt match (Count)
system.cpu.branchPred.tage.altMatchProvider::6        53163                       # TAGE provider for alt match (Count)
system.cpu.branchPred.tage.altMatchProvider::7            0                       # TAGE provider for alt match (Count)
system.cpu.commit.commitSquashedInsts         1871647                       # The number of squashed insts skipped by commit (Count)
system.cpu.commit.commitNonSpecStalls            6342                       # The number of times commit has been forced to stall to communicate backwards (Count)
system.cpu.commit.branchMispredicts             35079                       # The number of times a branch was mispredicted (Count)
system.cpu.commit.numCommittedDist::samples      5655292                       # Number of insts commited each cycle (Count)
system.cpu.commit.numCommittedDist::mean     1.768320                       # Number of insts commited each cycle (Count)
system.cpu.commit.numCommittedDist::stdev     2.384018                       # Number of insts commited each cycle (Count)
system.cpu.commit.numCommittedDist::underflows            0      0.00%      0.00% # Number of insts commited each cycle (Count)
system.cpu.commit.numCommittedDist::0         2964090     52.41%     52.41% # Number of insts commited each cycle (Count)
system.cpu.commit.numCommittedDist::1          730489     12.92%     65.33% # Number of insts commited each cycle (Count)
system.cpu.commit.numCommittedDist::2          359603      6.36%     71.69% # Number of insts commited each cycle (Count)
system.cpu.commit.numCommittedDist::3          230776      4.08%     75.77% # Number of insts commited each cycle (Count)
system.cpu.commit.numCommittedDist::4          124147      2.20%     77.96% # Number of insts commited each cycle (Count)
system.cpu.commit.numCommittedDist::5          115366      2.04%     80.00% # Number of insts commited each cycle (Count)
system.cpu.commit.numCommittedDist::6         1130821     20.00%    100.00% # Number of insts commited each cycle (Count)
system.cpu.commit.numCommittedDist::overflows            0      0.00%    100.00% # Number of insts commited each cycle (Count)
system.cpu.commit.numCommittedDist::min_value            0                       # Number of insts commited each cycle (Count)
system.cpu.commit.numCommittedDist::max_value            6                       # Number of insts commited each cycle (Count)
system.cpu.commit.numCommittedDist::total      5655292                       # Number of insts commited each cycle (Count)
system.cpu.commit.instsCommitted             10000005                       # Number of instructions committed (Count)
system.cpu.commit.opsCommitted               10000367                       # Number of ops (including micro ops) committed (Count)
system.cpu.commit.memRefs                     4041813                       # Number of memory references committed (Count)
system.cpu.commit.loads                       2553049                       # Number of loads committed (Count)
system.cpu.commit.amos                           1054                       # Number of atomic instructions committed (Count)
system.cpu.commit.membars                         362                       # Number of memory barriers committed (Count)
system.cpu.commit.branches                    1718612                       # Number of branches committed (Count)
system.cpu.commit.vectorInstructions                0                       # Number of committed Vector instructions. (Count)
system.cpu.commit.floating                         32                       # Number of committed floating point instructions. (Count)
system.cpu.commit.integer                     9938435                       # Number of committed integer instructions. (Count)
system.cpu.commit.functionCalls                146329                       # Number of function calls committed. (Count)
system.cpu.commit.committedInstType_0::No_OpClass         5049      0.05%      0.05% # Class of committed instruction (Count)
system.cpu.commit.committedInstType_0::IntAlu      5953113     59.53%     59.58% # Class of committed instruction (Count)
system.cpu.commit.committedInstType_0::IntMult          234      0.00%     59.58% # Class of committed instruction (Count)
system.cpu.commit.committedInstType_0::IntDiv          158      0.00%     59.58% # Class of committed instruction (Count)
system.cpu.commit.committedInstType_0::FloatAdd            0      0.00%     59.58% # Class of committed instruction (Count)
system.cpu.commit.committedInstType_0::FloatCmp            0      0.00%     59.58% # Class of committed instruction (Count)
system.cpu.commit.committedInstType_0::FloatCvt            0      0.00%     59.58% # Class of committed instruction (Count)
system.cpu.commit.committedInstType_0::FloatMult            0      0.00%     59.58% # Class of committed instruction (Count)
system.cpu.commit.committedInstType_0::FloatMultAcc            0      0.00%     59.58% # Class of committed instruction (Count)
system.cpu.commit.committedInstType_0::FloatDiv            0      0.00%     59.58% # Class of committed instruction (Count)
system.cpu.commit.committedInstType_0::FloatMisc            0      0.00%     59.58% # Class of committed instruction (Count)
system.cpu.commit.committedInstType_0::FloatSqrt            0      0.00%     59.58% # Class of committed instruction (Count)
system.cpu.commit.committedInstType_0::SimdAdd            0      0.00%     59.58% # Class of committed instruction (Count)
system.cpu.commit.committedInstType_0::SimdAddAcc            0      0.00%     59.58% # Class of committed instruction (Count)
system.cpu.commit.committedInstType_0::SimdAlu            0      0.00%     59.58% # Class of committed instruction (Count)
system.cpu.commit.committedInstType_0::SimdCmp            0      0.00%     59.58% # Class of committed instruction (Count)
system.cpu.commit.committedInstType_0::SimdCvt            0      0.00%     59.58% # Class of committed instruction (Count)
system.cpu.commit.committedInstType_0::SimdMisc            0      0.00%     59.58% # Class of committed instruction (Count)
system.cpu.commit.committedInstType_0::SimdMult            0      0.00%     59.58% # Class of committed instruction (Count)
system.cpu.commit.committedInstType_0::SimdMultAcc            0      0.00%     59.58% # Class of committed instruction (Count)
system.cpu.commit.committedInstType_0::SimdShift            0      0.00%     59.58% # Class of committed instruction (Count)
system.cpu.commit.committedInstType_0::SimdShiftAcc            0      0.00%     59.58% # Class of committed instruction (Count)
system.cpu.commit.committedInstType_0::SimdDiv            0      0.00%     59.58% # Class of committed instruction (Count)
system.cpu.commit.committedInstType_0::SimdSqrt            0      0.00%     59.58% # Class of committed instruction (Count)
system.cpu.commit.committedInstType_0::SimdFloatAdd            0      0.00%     59.58% # Class of committed instruction (Count)
system.cpu.commit.committedInstType_0::SimdFloatAlu            0      0.00%     59.58% # Class of committed instruction (Count)
system.cpu.commit.committedInstType_0::SimdFloatCmp            0      0.00%     59.58% # Class of committed instruction (Count)
system.cpu.commit.committedInstType_0::SimdFloatCvt            0      0.00%     59.58% # Class of committed instruction (Count)
system.cpu.commit.committedInstType_0::SimdFloatDiv            0      0.00%     59.58% # Class of committed instruction (Count)
system.cpu.commit.committedInstType_0::SimdFloatMisc            0      0.00%     59.58% # Class of committed instruction (Count)
system.cpu.commit.committedInstType_0::SimdFloatMult            0      0.00%     59.58% # Class of committed instruction (Count)
system.cpu.commit.committedInstType_0::SimdFloatMultAcc            0      0.00%     59.58% # Class of committed instruction (Count)
system.cpu.commit.committedInstType_0::SimdFloatSqrt            0      0.00%     59.58% # Class of committed instruction (Count)
system.cpu.commit.committedInstType_0::SimdReduceAdd            0      0.00%     59.58% # Class of committed instruction (Count)
system.cpu.commit.committedInstType_0::SimdReduceAlu            0      0.00%     59.58% # Class of committed instruction (Count)
system.cpu.commit.committedInstType_0::SimdReduceCmp            0      0.00%     59.58% # Class of committed instruction (Count)
system.cpu.commit.committedInstType_0::SimdFloatReduceAdd            0      0.00%     59.58% # Class of committed instruction (Count)
system.cpu.commit.committedInstType_0::SimdFloatReduceCmp            0      0.00%     59.58% # Class of committed instruction (Count)
system.cpu.commit.committedInstType_0::SimdAes            0      0.00%     59.58% # Class of committed instruction (Count)
system.cpu.commit.committedInstType_0::SimdAesMix            0      0.00%     59.58% # Class of committed instruction (Count)
system.cpu.commit.committedInstType_0::SimdSha1Hash            0      0.00%     59.58% # Class of committed instruction (Count)
system.cpu.commit.committedInstType_0::SimdSha1Hash2            0      0.00%     59.58% # Class of committed instruction (Count)
system.cpu.commit.committedInstType_0::SimdSha256Hash            0      0.00%     59.58% # Class of committed instruction (Count)
system.cpu.commit.committedInstType_0::SimdSha256Hash2            0      0.00%     59.58% # Class of committed instruction (Count)
system.cpu.commit.committedInstType_0::SimdShaSigma2            0      0.00%     59.58% # Class of committed instruction (Count)
system.cpu.commit.committedInstType_0::SimdShaSigma3            0      0.00%     59.58% # Class of committed instruction (Count)
system.cpu.commit.committedInstType_0::SimdPredAlu            0      0.00%     59.58% # Class of committed instruction (Count)
system.cpu.commit.committedInstType_0::MemRead      2554071     25.54%     85.12% # Class of committed instruction (Count)
system.cpu.commit.committedInstType_0::MemWrite      1487710     14.88%    100.00% # Class of committed instruction (Count)
system.cpu.commit.committedInstType_0::FloatMemRead           32      0.00%    100.00% # Class of committed instruction (Count)
system.cpu.commit.committedInstType_0::FloatMemWrite            0      0.00%    100.00% # Class of committed instruction (Count)
system.cpu.commit.committedInstType_0::IprAccess            0      0.00%    100.00% # Class of committed instruction (Count)
system.cpu.commit.committedInstType_0::InstPrefetch            0      0.00%    100.00% # Class of committed instruction (Count)
system.cpu.commit.committedInstType_0::FMAMul            0      0.00%    100.00% # Class of committed instruction (Count)
system.cpu.commit.committedInstType_0::FMAAcc            0      0.00%    100.00% # Class of committed instruction (Count)
system.cpu.commit.committedInstType_0::total     10000367                       # Class of committed instruction (Count)
system.cpu.commit.commitEligibleSamples       1130821                       # number cycles where commit BW limit reached (Cycle)
system.cpu.dcache.demandHits::cpu.data        3739213                       # number of demand (read+write) hits (Count)
system.cpu.dcache.demandHits::total           3739213                       # number of demand (read+write) hits (Count)
system.cpu.dcache.overallHits::cpu.data       3739213                       # number of overall hits (Count)
system.cpu.dcache.overallHits::total          3739213                       # number of overall hits (Count)
system.cpu.dcache.demandMisses::cpu.data        50433                       # number of demand (read+write) misses (Count)
system.cpu.dcache.demandMisses::total           50433                       # number of demand (read+write) misses (Count)
system.cpu.dcache.overallMisses::cpu.data        50433                       # number of overall misses (Count)
system.cpu.dcache.overallMisses::total          50433                       # number of overall misses (Count)
system.cpu.dcache.demandMissLatency::cpu.data   3498395500                       # number of demand (read+write) miss ticks (Tick)
system.cpu.dcache.demandMissLatency::total   3498395500                       # number of demand (read+write) miss ticks (Tick)
system.cpu.dcache.overallMissLatency::cpu.data   3498395500                       # number of overall miss ticks (Tick)
system.cpu.dcache.overallMissLatency::total   3498395500                       # number of overall miss ticks (Tick)
system.cpu.dcache.demandAccesses::cpu.data      3789646                       # number of demand (read+write) accesses (Count)
system.cpu.dcache.demandAccesses::total       3789646                       # number of demand (read+write) accesses (Count)
system.cpu.dcache.overallAccesses::cpu.data      3789646                       # number of overall (read+write) accesses (Count)
system.cpu.dcache.overallAccesses::total      3789646                       # number of overall (read+write) accesses (Count)
system.cpu.dcache.demandMissRate::cpu.data     0.013308                       # miss rate for demand accesses (Ratio)
system.cpu.dcache.demandMissRate::total      0.013308                       # miss rate for demand accesses (Ratio)
system.cpu.dcache.overallMissRate::cpu.data     0.013308                       # miss rate for overall accesses (Ratio)
system.cpu.dcache.overallMissRate::total     0.013308                       # miss rate for overall accesses (Ratio)
system.cpu.dcache.demandAvgMissLatency::cpu.data 69367.190133                       # average overall miss latency in ticks ((Tick/Count))
system.cpu.dcache.demandAvgMissLatency::total 69367.190133                       # average overall miss latency in ticks ((Tick/Count))
system.cpu.dcache.overallAvgMissLatency::cpu.data 69367.190133                       # average overall miss latency ((Tick/Count))
system.cpu.dcache.overallAvgMissLatency::total 69367.190133                       # average overall miss latency ((Tick/Count))
system.cpu.dcache.blockedCycles::no_mshrs            0                       # number of cycles access was blocked (Cycle)
system.cpu.dcache.blockedCycles::no_targets         2462                       # number of cycles access was blocked (Cycle)
system.cpu.dcache.blockedCauses::no_mshrs            0                       # number of times access was blocked (Count)
system.cpu.dcache.blockedCauses::no_targets           35                       # number of times access was blocked (Count)
system.cpu.dcache.avgBlocked::no_mshrs            nan                       # average number of cycles each access was blocked ((Cycle/Count))
system.cpu.dcache.avgBlocked::no_targets    70.342857                       # average number of cycles each access was blocked ((Cycle/Count))
system.cpu.dcache.writebacks::writebacks         6745                       # number of writebacks (Count)
system.cpu.dcache.writebacks::total              6745                       # number of writebacks (Count)
system.cpu.dcache.demandMshrHits::cpu.data        41575                       # number of demand (read+write) MSHR hits (Count)
system.cpu.dcache.demandMshrHits::total         41575                       # number of demand (read+write) MSHR hits (Count)
system.cpu.dcache.overallMshrHits::cpu.data        41575                       # number of overall MSHR hits (Count)
system.cpu.dcache.overallMshrHits::total        41575                       # number of overall MSHR hits (Count)
system.cpu.dcache.demandMshrMisses::cpu.data         8858                       # number of demand (read+write) MSHR misses (Count)
system.cpu.dcache.demandMshrMisses::total         8858                       # number of demand (read+write) MSHR misses (Count)
system.cpu.dcache.overallMshrMisses::cpu.data         8858                       # number of overall MSHR misses (Count)
system.cpu.dcache.overallMshrMisses::total         8858                       # number of overall MSHR misses (Count)
system.cpu.dcache.overallMshrUncacheable::cpu.data            2                       # number of overall MSHR uncacheable misses (Count)
system.cpu.dcache.overallMshrUncacheable::total            2                       # number of overall MSHR uncacheable misses (Count)
system.cpu.dcache.demandMshrMissLatency::cpu.data    591945000                       # number of demand (read+write) MSHR miss ticks (Tick)
system.cpu.dcache.demandMshrMissLatency::total    591945000                       # number of demand (read+write) MSHR miss ticks (Tick)
system.cpu.dcache.overallMshrMissLatency::cpu.data    591945000                       # number of overall MSHR miss ticks (Tick)
system.cpu.dcache.overallMshrMissLatency::total    591945000                       # number of overall MSHR miss ticks (Tick)
system.cpu.dcache.demandMshrMissRate::cpu.data     0.002337                       # mshr miss ratio for demand accesses (Ratio)
system.cpu.dcache.demandMshrMissRate::total     0.002337                       # mshr miss ratio for demand accesses (Ratio)
system.cpu.dcache.overallMshrMissRate::cpu.data     0.002337                       # mshr miss ratio for overall accesses (Ratio)
system.cpu.dcache.overallMshrMissRate::total     0.002337                       # mshr miss ratio for overall accesses (Ratio)
system.cpu.dcache.demandAvgMshrMissLatency::cpu.data 66826.032965                       # average overall mshr miss latency ((Tick/Count))
system.cpu.dcache.demandAvgMshrMissLatency::total 66826.032965                       # average overall mshr miss latency ((Tick/Count))
system.cpu.dcache.overallAvgMshrMissLatency::cpu.data 66826.032965                       # average overall mshr miss latency ((Tick/Count))
system.cpu.dcache.overallAvgMshrMissLatency::total 66826.032965                       # average overall mshr miss latency ((Tick/Count))
system.cpu.dcache.replacements                   6745                       # number of replacements (Count)
system.cpu.dcache.LoadLockedReq.hits::cpu.data            1                       # number of LoadLockedReq hits (Count)
system.cpu.dcache.LoadLockedReq.hits::total            1                       # number of LoadLockedReq hits (Count)
system.cpu.dcache.LoadLockedReq.misses::cpu.data            1                       # number of LoadLockedReq misses (Count)
system.cpu.dcache.LoadLockedReq.misses::total            1                       # number of LoadLockedReq misses (Count)
system.cpu.dcache.LoadLockedReq.missLatency::cpu.data        74500                       # number of LoadLockedReq miss ticks (Tick)
system.cpu.dcache.LoadLockedReq.missLatency::total        74500                       # number of LoadLockedReq miss ticks (Tick)
system.cpu.dcache.LoadLockedReq.missLatencyDist::samples            1                       # number of LoadLockedReq miss ticks histogram (Tick)
system.cpu.dcache.LoadLockedReq.missLatencyDist::mean          149                       # number of LoadLockedReq miss ticks histogram (Tick)
system.cpu.dcache.LoadLockedReq.missLatencyDist::140-149            1    100.00%    100.00% # number of LoadLockedReq miss ticks histogram (Tick)
system.cpu.dcache.LoadLockedReq.missLatencyDist::min_value          149                       # number of LoadLockedReq miss ticks histogram (Tick)
system.cpu.dcache.LoadLockedReq.missLatencyDist::max_value          149                       # number of LoadLockedReq miss ticks histogram (Tick)
system.cpu.dcache.LoadLockedReq.missLatencyDist::total            1                       # number of LoadLockedReq miss ticks histogram (Tick)
system.cpu.dcache.LoadLockedReq.accesses::cpu.data            2                       # number of LoadLockedReq accesses(hits+misses) (Count)
system.cpu.dcache.LoadLockedReq.accesses::total            2                       # number of LoadLockedReq accesses(hits+misses) (Count)
system.cpu.dcache.LoadLockedReq.missRate::cpu.data     0.500000                       # miss rate for LoadLockedReq accesses (Ratio)
system.cpu.dcache.LoadLockedReq.missRate::total     0.500000                       # miss rate for LoadLockedReq accesses (Ratio)
system.cpu.dcache.LoadLockedReq.avgMissLatency::cpu.data        74500                       # average LoadLockedReq miss latency ((Tick/Count))
system.cpu.dcache.LoadLockedReq.avgMissLatency::total        74500                       # average LoadLockedReq miss latency ((Tick/Count))
system.cpu.dcache.LoadLockedReq.mshrHits::cpu.data            1                       # number of LoadLockedReq MSHR hits (Count)
system.cpu.dcache.LoadLockedReq.mshrHits::total            1                       # number of LoadLockedReq MSHR hits (Count)
system.cpu.dcache.ReadReq.hits::cpu.data      2297411                       # number of ReadReq hits (Count)
system.cpu.dcache.ReadReq.hits::total         2297411                       # number of ReadReq hits (Count)
system.cpu.dcache.ReadReq.misses::cpu.data         4530                       # number of ReadReq misses (Count)
system.cpu.dcache.ReadReq.misses::total          4530                       # number of ReadReq misses (Count)
system.cpu.dcache.ReadReq.missLatency::cpu.data    281319500                       # number of ReadReq miss ticks (Tick)
system.cpu.dcache.ReadReq.missLatency::total    281319500                       # number of ReadReq miss ticks (Tick)
system.cpu.dcache.ReadReq.missLatencyDist::samples         4530                       # number of ReadReq miss ticks histogram (Tick)
system.cpu.dcache.ReadReq.missLatencyDist::mean   124.202870                       # number of ReadReq miss ticks histogram (Tick)
system.cpu.dcache.ReadReq.missLatencyDist::stdev    68.912953                       # number of ReadReq miss ticks histogram (Tick)
system.cpu.dcache.ReadReq.missLatencyDist::0-9            4      0.09%      0.09% # number of ReadReq miss ticks histogram (Tick)
system.cpu.dcache.ReadReq.missLatencyDist::10-19           29      0.64%      0.73% # number of ReadReq miss ticks histogram (Tick)
system.cpu.dcache.ReadReq.missLatencyDist::20-29          259      5.72%      6.45% # number of ReadReq miss ticks histogram (Tick)
system.cpu.dcache.ReadReq.missLatencyDist::30-39           11      0.24%      6.69% # number of ReadReq miss ticks histogram (Tick)
system.cpu.dcache.ReadReq.missLatencyDist::40-49           16      0.35%      7.04% # number of ReadReq miss ticks histogram (Tick)
system.cpu.dcache.ReadReq.missLatencyDist::50-59           59      1.30%      8.34% # number of ReadReq miss ticks histogram (Tick)
system.cpu.dcache.ReadReq.missLatencyDist::60-69           38      0.84%      9.18% # number of ReadReq miss ticks histogram (Tick)
system.cpu.dcache.ReadReq.missLatencyDist::70-79           86      1.90%     11.08% # number of ReadReq miss ticks histogram (Tick)
system.cpu.dcache.ReadReq.missLatencyDist::80-89          100      2.21%     13.29% # number of ReadReq miss ticks histogram (Tick)
system.cpu.dcache.ReadReq.missLatencyDist::90-99          128      2.83%     16.11% # number of ReadReq miss ticks histogram (Tick)
system.cpu.dcache.ReadReq.missLatencyDist::100-109          168      3.71%     19.82% # number of ReadReq miss ticks histogram (Tick)
system.cpu.dcache.ReadReq.missLatencyDist::110-119          273      6.03%     25.85% # number of ReadReq miss ticks histogram (Tick)
system.cpu.dcache.ReadReq.missLatencyDist::120-129         2161     47.70%     73.55% # number of ReadReq miss ticks histogram (Tick)
system.cpu.dcache.ReadReq.missLatencyDist::130-139           81      1.79%     75.34% # number of ReadReq miss ticks histogram (Tick)
system.cpu.dcache.ReadReq.missLatencyDist::140-149          619     13.66%     89.01% # number of ReadReq miss ticks histogram (Tick)
system.cpu.dcache.ReadReq.missLatencyDist::150-159           91      2.01%     91.02% # number of ReadReq miss ticks histogram (Tick)
system.cpu.dcache.ReadReq.missLatencyDist::160-169           40      0.88%     91.90% # number of ReadReq miss ticks histogram (Tick)
system.cpu.dcache.ReadReq.missLatencyDist::170-179          236      5.21%     97.11% # number of ReadReq miss ticks histogram (Tick)
system.cpu.dcache.ReadReq.missLatencyDist::180-189           47      1.04%     98.15% # number of ReadReq miss ticks histogram (Tick)
system.cpu.dcache.ReadReq.missLatencyDist::190-199           18      0.40%     98.54% # number of ReadReq miss ticks histogram (Tick)
system.cpu.dcache.ReadReq.missLatencyDist::200-209            8      0.18%     98.72% # number of ReadReq miss ticks histogram (Tick)
system.cpu.dcache.ReadReq.missLatencyDist::210-219            2      0.04%     98.76% # number of ReadReq miss ticks histogram (Tick)
system.cpu.dcache.ReadReq.missLatencyDist::220-229            4      0.09%     98.85% # number of ReadReq miss ticks histogram (Tick)
system.cpu.dcache.ReadReq.missLatencyDist::230-239            4      0.09%     98.94% # number of ReadReq miss ticks histogram (Tick)
system.cpu.dcache.ReadReq.missLatencyDist::240-249            4      0.09%     99.03% # number of ReadReq miss ticks histogram (Tick)
system.cpu.dcache.ReadReq.missLatencyDist::250-259            3      0.07%     99.09% # number of ReadReq miss ticks histogram (Tick)
system.cpu.dcache.ReadReq.missLatencyDist::260-269            1      0.02%     99.12% # number of ReadReq miss ticks histogram (Tick)
system.cpu.dcache.ReadReq.missLatencyDist::300-309            1      0.02%     99.14% # number of ReadReq miss ticks histogram (Tick)
system.cpu.dcache.ReadReq.missLatencyDist::340-349            1      0.02%     99.16% # number of ReadReq miss ticks histogram (Tick)
system.cpu.dcache.ReadReq.missLatencyDist::570-579            2      0.04%     99.21% # number of ReadReq miss ticks histogram (Tick)
system.cpu.dcache.ReadReq.missLatencyDist::580-589            1      0.02%     99.23% # number of ReadReq miss ticks histogram (Tick)
system.cpu.dcache.ReadReq.missLatencyDist::610-619            1      0.02%     99.25% # number of ReadReq miss ticks histogram (Tick)
system.cpu.dcache.ReadReq.missLatencyDist::620-629            1      0.02%     99.27% # number of ReadReq miss ticks histogram (Tick)
system.cpu.dcache.ReadReq.missLatencyDist::640-649            1      0.02%     99.29% # number of ReadReq miss ticks histogram (Tick)
system.cpu.dcache.ReadReq.missLatencyDist::660-669            3      0.07%     99.36% # number of ReadReq miss ticks histogram (Tick)
system.cpu.dcache.ReadReq.missLatencyDist::700-709            2      0.04%     99.40% # number of ReadReq miss ticks histogram (Tick)
system.cpu.dcache.ReadReq.missLatencyDist::710-719            1      0.02%     99.43% # number of ReadReq miss ticks histogram (Tick)
system.cpu.dcache.ReadReq.missLatencyDist::720-729            2      0.04%     99.47% # number of ReadReq miss ticks histogram (Tick)
system.cpu.dcache.ReadReq.missLatencyDist::740-749            1      0.02%     99.49% # number of ReadReq miss ticks histogram (Tick)
system.cpu.dcache.ReadReq.missLatencyDist::760-769            4      0.09%     99.58% # number of ReadReq miss ticks histogram (Tick)
system.cpu.dcache.ReadReq.missLatencyDist::770-779            3      0.07%     99.65% # number of ReadReq miss ticks histogram (Tick)
system.cpu.dcache.ReadReq.missLatencyDist::780-789            3      0.07%     99.71% # number of ReadReq miss ticks histogram (Tick)
system.cpu.dcache.ReadReq.missLatencyDist::790-799            1      0.02%     99.74% # number of ReadReq miss ticks histogram (Tick)
system.cpu.dcache.ReadReq.missLatencyDist::800-809            1      0.02%     99.76% # number of ReadReq miss ticks histogram (Tick)
system.cpu.dcache.ReadReq.missLatencyDist::810-819            4      0.09%     99.85% # number of ReadReq miss ticks histogram (Tick)
system.cpu.dcache.ReadReq.missLatencyDist::820-829            1      0.02%     99.87% # number of ReadReq miss ticks histogram (Tick)
system.cpu.dcache.ReadReq.missLatencyDist::830-839            1      0.02%     99.89% # number of ReadReq miss ticks histogram (Tick)
system.cpu.dcache.ReadReq.missLatencyDist::850-859            1      0.02%     99.91% # number of ReadReq miss ticks histogram (Tick)
system.cpu.dcache.ReadReq.missLatencyDist::860-869            1      0.02%     99.93% # number of ReadReq miss ticks histogram (Tick)
system.cpu.dcache.ReadReq.missLatencyDist::870-879            1      0.02%     99.96% # number of ReadReq miss ticks histogram (Tick)
system.cpu.dcache.ReadReq.missLatencyDist::960-969            2      0.04%    100.00% # number of ReadReq miss ticks histogram (Tick)
system.cpu.dcache.ReadReq.missLatencyDist::min_value            9                       # number of ReadReq miss ticks histogram (Tick)
system.cpu.dcache.ReadReq.missLatencyDist::max_value          964                       # number of ReadReq miss ticks histogram (Tick)
system.cpu.dcache.ReadReq.missLatencyDist::total         4530                       # number of ReadReq miss ticks histogram (Tick)
system.cpu.dcache.ReadReq.accesses::cpu.data      2301941                       # number of ReadReq accesses(hits+misses) (Count)
system.cpu.dcache.ReadReq.accesses::total      2301941                       # number of ReadReq accesses(hits+misses) (Count)
system.cpu.dcache.ReadReq.missRate::cpu.data     0.001968                       # miss rate for ReadReq accesses (Ratio)
system.cpu.dcache.ReadReq.missRate::total     0.001968                       # miss rate for ReadReq accesses (Ratio)
system.cpu.dcache.ReadReq.avgMissLatency::cpu.data 62101.434879                       # average ReadReq miss latency ((Tick/Count))
system.cpu.dcache.ReadReq.avgMissLatency::total 62101.434879                       # average ReadReq miss latency ((Tick/Count))
system.cpu.dcache.ReadReq.mshrHits::cpu.data         1650                       # number of ReadReq MSHR hits (Count)
system.cpu.dcache.ReadReq.mshrHits::total         1650                       # number of ReadReq MSHR hits (Count)
system.cpu.dcache.ReadReq.mshrMisses::cpu.data         2880                       # number of ReadReq MSHR misses (Count)
system.cpu.dcache.ReadReq.mshrMisses::total         2880                       # number of ReadReq MSHR misses (Count)
system.cpu.dcache.ReadReq.mshrMissLatency::cpu.data    183686500                       # number of ReadReq MSHR miss ticks (Tick)
system.cpu.dcache.ReadReq.mshrMissLatency::total    183686500                       # number of ReadReq MSHR miss ticks (Tick)
system.cpu.dcache.ReadReq.mshrMissRate::cpu.data     0.001251                       # mshr miss rate for ReadReq accesses (Ratio)
system.cpu.dcache.ReadReq.mshrMissRate::total     0.001251                       # mshr miss rate for ReadReq accesses (Ratio)
system.cpu.dcache.ReadReq.avgMshrMissLatency::cpu.data 63780.034722                       # average ReadReq mshr miss latency ((Tick/Count))
system.cpu.dcache.ReadReq.avgMshrMissLatency::total 63780.034722                       # average ReadReq mshr miss latency ((Tick/Count))
system.cpu.dcache.SwapReq.hits::cpu.data         1029                       # number of SwapReq hits (Count)
system.cpu.dcache.SwapReq.hits::total            1029                       # number of SwapReq hits (Count)
system.cpu.dcache.SwapReq.misses::cpu.data           25                       # number of SwapReq misses (Count)
system.cpu.dcache.SwapReq.misses::total            25                       # number of SwapReq misses (Count)
system.cpu.dcache.SwapReq.missLatency::cpu.data      1518500                       # number of SwapReq miss ticks (Tick)
system.cpu.dcache.SwapReq.missLatency::total      1518500                       # number of SwapReq miss ticks (Tick)
system.cpu.dcache.SwapReq.missLatencyDist::samples           25                       # number of SwapReq miss ticks histogram (Tick)
system.cpu.dcache.SwapReq.missLatencyDist::mean   121.480000                       # number of SwapReq miss ticks histogram (Tick)
system.cpu.dcache.SwapReq.missLatencyDist::stdev    51.614048                       # number of SwapReq miss ticks histogram (Tick)
system.cpu.dcache.SwapReq.missLatencyDist::20-29            5     20.00%     20.00% # number of SwapReq miss ticks histogram (Tick)
system.cpu.dcache.SwapReq.missLatencyDist::120-129            2      8.00%     28.00% # number of SwapReq miss ticks histogram (Tick)
system.cpu.dcache.SwapReq.missLatencyDist::140-149           17     68.00%     96.00% # number of SwapReq miss ticks histogram (Tick)
system.cpu.dcache.SwapReq.missLatencyDist::170-179            1      4.00%    100.00% # number of SwapReq miss ticks histogram (Tick)
system.cpu.dcache.SwapReq.missLatencyDist::min_value           22                       # number of SwapReq miss ticks histogram (Tick)
system.cpu.dcache.SwapReq.missLatencyDist::max_value          172                       # number of SwapReq miss ticks histogram (Tick)
system.cpu.dcache.SwapReq.missLatencyDist::total           25                       # number of SwapReq miss ticks histogram (Tick)
system.cpu.dcache.SwapReq.accesses::cpu.data         1054                       # number of SwapReq accesses(hits+misses) (Count)
system.cpu.dcache.SwapReq.accesses::total         1054                       # number of SwapReq accesses(hits+misses) (Count)
system.cpu.dcache.SwapReq.missRate::cpu.data     0.023719                       # miss rate for SwapReq accesses (Ratio)
system.cpu.dcache.SwapReq.missRate::total     0.023719                       # miss rate for SwapReq accesses (Ratio)
system.cpu.dcache.SwapReq.avgMissLatency::cpu.data        60740                       # average SwapReq miss latency ((Tick/Count))
system.cpu.dcache.SwapReq.avgMissLatency::total        60740                       # average SwapReq miss latency ((Tick/Count))
system.cpu.dcache.SwapReq.mshrHits::cpu.data            5                       # number of SwapReq MSHR hits (Count)
system.cpu.dcache.SwapReq.mshrHits::total            5                       # number of SwapReq MSHR hits (Count)
system.cpu.dcache.SwapReq.mshrMisses::cpu.data           20                       # number of SwapReq MSHR misses (Count)
system.cpu.dcache.SwapReq.mshrMisses::total           20                       # number of SwapReq MSHR misses (Count)
system.cpu.dcache.SwapReq.mshrMissLatency::cpu.data      1102500                       # number of SwapReq MSHR miss ticks (Tick)
system.cpu.dcache.SwapReq.mshrMissLatency::total      1102500                       # number of SwapReq MSHR miss ticks (Tick)
system.cpu.dcache.SwapReq.mshrMissRate::cpu.data     0.018975                       # mshr miss rate for SwapReq accesses (Ratio)
system.cpu.dcache.SwapReq.mshrMissRate::total     0.018975                       # mshr miss rate for SwapReq accesses (Ratio)
system.cpu.dcache.SwapReq.avgMshrMissLatency::cpu.data        55125                       # average SwapReq mshr miss latency ((Tick/Count))
system.cpu.dcache.SwapReq.avgMshrMissLatency::total        55125                       # average SwapReq mshr miss latency ((Tick/Count))
system.cpu.dcache.WriteReq.hits::cpu.data      1441802                       # number of WriteReq hits (Count)
system.cpu.dcache.WriteReq.hits::total        1441802                       # number of WriteReq hits (Count)
system.cpu.dcache.WriteReq.misses::cpu.data        45903                       # number of WriteReq misses (Count)
system.cpu.dcache.WriteReq.misses::total        45903                       # number of WriteReq misses (Count)
system.cpu.dcache.WriteReq.missLatency::cpu.data   3217076000                       # number of WriteReq miss ticks (Tick)
system.cpu.dcache.WriteReq.missLatency::total   3217076000                       # number of WriteReq miss ticks (Tick)
system.cpu.dcache.WriteReq.missLatencyDist::samples        45903                       # number of WriteReq miss ticks histogram (Tick)
system.cpu.dcache.WriteReq.missLatencyDist::mean   140.168442                       # number of WriteReq miss ticks histogram (Tick)
system.cpu.dcache.WriteReq.missLatencyDist::stdev    68.998856                       # number of WriteReq miss ticks histogram (Tick)
system.cpu.dcache.WriteReq.missLatencyDist::0-9           19      0.04%      0.04% # number of WriteReq miss ticks histogram (Tick)
system.cpu.dcache.WriteReq.missLatencyDist::10-19           93      0.20%      0.24% # number of WriteReq miss ticks histogram (Tick)
system.cpu.dcache.WriteReq.missLatencyDist::20-29          151      0.33%      0.57% # number of WriteReq miss ticks histogram (Tick)
system.cpu.dcache.WriteReq.missLatencyDist::30-39           19      0.04%      0.61% # number of WriteReq miss ticks histogram (Tick)
system.cpu.dcache.WriteReq.missLatencyDist::40-49          215      0.47%      1.08% # number of WriteReq miss ticks histogram (Tick)
system.cpu.dcache.WriteReq.missLatencyDist::50-59           26      0.06%      1.14% # number of WriteReq miss ticks histogram (Tick)
system.cpu.dcache.WriteReq.missLatencyDist::60-69           28      0.06%      1.20% # number of WriteReq miss ticks histogram (Tick)
system.cpu.dcache.WriteReq.missLatencyDist::70-79           15      0.03%      1.23% # number of WriteReq miss ticks histogram (Tick)
system.cpu.dcache.WriteReq.missLatencyDist::80-89           44      0.10%      1.33% # number of WriteReq miss ticks histogram (Tick)
system.cpu.dcache.WriteReq.missLatencyDist::90-99           52      0.11%      1.44% # number of WriteReq miss ticks histogram (Tick)
system.cpu.dcache.WriteReq.missLatencyDist::100-109          255      0.56%      2.00% # number of WriteReq miss ticks histogram (Tick)
system.cpu.dcache.WriteReq.missLatencyDist::110-119         8294     18.07%     20.07% # number of WriteReq miss ticks histogram (Tick)
system.cpu.dcache.WriteReq.missLatencyDist::120-129        13955     30.40%     50.47% # number of WriteReq miss ticks histogram (Tick)
system.cpu.dcache.WriteReq.missLatencyDist::130-139         1440      3.14%     53.60% # number of WriteReq miss ticks histogram (Tick)
system.cpu.dcache.WriteReq.missLatencyDist::140-149        15216     33.15%     86.75% # number of WriteReq miss ticks histogram (Tick)
system.cpu.dcache.WriteReq.missLatencyDist::150-159         1282      2.79%     89.55% # number of WriteReq miss ticks histogram (Tick)
system.cpu.dcache.WriteReq.missLatencyDist::160-169         1027      2.24%     91.78% # number of WriteReq miss ticks histogram (Tick)
system.cpu.dcache.WriteReq.missLatencyDist::170-179         1610      3.51%     95.29% # number of WriteReq miss ticks histogram (Tick)
system.cpu.dcache.WriteReq.missLatencyDist::180-189         1158      2.52%     97.81% # number of WriteReq miss ticks histogram (Tick)
system.cpu.dcache.WriteReq.missLatencyDist::190-199          348      0.76%     98.57% # number of WriteReq miss ticks histogram (Tick)
system.cpu.dcache.WriteReq.missLatencyDist::200-209          156      0.34%     98.91% # number of WriteReq miss ticks histogram (Tick)
system.cpu.dcache.WriteReq.missLatencyDist::210-219           96      0.21%     99.12% # number of WriteReq miss ticks histogram (Tick)
system.cpu.dcache.WriteReq.missLatencyDist::250-259            1      0.00%     99.12% # number of WriteReq miss ticks histogram (Tick)
system.cpu.dcache.WriteReq.missLatencyDist::260-269            1      0.00%     99.12% # number of WriteReq miss ticks histogram (Tick)
system.cpu.dcache.WriteReq.missLatencyDist::300-309            1      0.00%     99.13% # number of WriteReq miss ticks histogram (Tick)
system.cpu.dcache.WriteReq.missLatencyDist::320-329            2      0.00%     99.13% # number of WriteReq miss ticks histogram (Tick)
system.cpu.dcache.WriteReq.missLatencyDist::620-629            1      0.00%     99.13% # number of WriteReq miss ticks histogram (Tick)
system.cpu.dcache.WriteReq.missLatencyDist::630-639            4      0.01%     99.14% # number of WriteReq miss ticks histogram (Tick)
system.cpu.dcache.WriteReq.missLatencyDist::640-649            3      0.01%     99.15% # number of WriteReq miss ticks histogram (Tick)
system.cpu.dcache.WriteReq.missLatencyDist::650-659            3      0.01%     99.15% # number of WriteReq miss ticks histogram (Tick)
system.cpu.dcache.WriteReq.missLatencyDist::660-669            5      0.01%     99.17% # number of WriteReq miss ticks histogram (Tick)
system.cpu.dcache.WriteReq.missLatencyDist::730-739            1      0.00%     99.17% # number of WriteReq miss ticks histogram (Tick)
system.cpu.dcache.WriteReq.missLatencyDist::750-759            3      0.01%     99.17% # number of WriteReq miss ticks histogram (Tick)
system.cpu.dcache.WriteReq.missLatencyDist::760-769            2      0.00%     99.18% # number of WriteReq miss ticks histogram (Tick)
system.cpu.dcache.WriteReq.missLatencyDist::770-779            1      0.00%     99.18% # number of WriteReq miss ticks histogram (Tick)
system.cpu.dcache.WriteReq.missLatencyDist::810-819            1      0.00%     99.18% # number of WriteReq miss ticks histogram (Tick)
system.cpu.dcache.WriteReq.missLatencyDist::820-829          142      0.31%     99.49% # number of WriteReq miss ticks histogram (Tick)
system.cpu.dcache.WriteReq.missLatencyDist::830-839          121      0.26%     99.76% # number of WriteReq miss ticks histogram (Tick)
system.cpu.dcache.WriteReq.missLatencyDist::860-869            1      0.00%     99.76% # number of WriteReq miss ticks histogram (Tick)
system.cpu.dcache.WriteReq.missLatencyDist::870-879           52      0.11%     99.87% # number of WriteReq miss ticks histogram (Tick)
system.cpu.dcache.WriteReq.missLatencyDist::880-889           19      0.04%     99.91% # number of WriteReq miss ticks histogram (Tick)
system.cpu.dcache.WriteReq.missLatencyDist::890-899            3      0.01%     99.92% # number of WriteReq miss ticks histogram (Tick)
system.cpu.dcache.WriteReq.missLatencyDist::900-909           37      0.08%    100.00% # number of WriteReq miss ticks histogram (Tick)
system.cpu.dcache.WriteReq.missLatencyDist::min_value            6                       # number of WriteReq miss ticks histogram (Tick)
system.cpu.dcache.WriteReq.missLatencyDist::max_value          908                       # number of WriteReq miss ticks histogram (Tick)
system.cpu.dcache.WriteReq.missLatencyDist::total        45903                       # number of WriteReq miss ticks histogram (Tick)
system.cpu.dcache.WriteReq.accesses::cpu.data      1487705                       # number of WriteReq accesses(hits+misses) (Count)
system.cpu.dcache.WriteReq.accesses::total      1487705                       # number of WriteReq accesses(hits+misses) (Count)
system.cpu.dcache.WriteReq.missRate::cpu.data     0.030855                       # miss rate for WriteReq accesses (Ratio)
system.cpu.dcache.WriteReq.missRate::total     0.030855                       # miss rate for WriteReq accesses (Ratio)
system.cpu.dcache.WriteReq.avgMissLatency::cpu.data 70084.221075                       # average WriteReq miss latency ((Tick/Count))
system.cpu.dcache.WriteReq.avgMissLatency::total 70084.221075                       # average WriteReq miss latency ((Tick/Count))
system.cpu.dcache.WriteReq.mshrHits::cpu.data        39925                       # number of WriteReq MSHR hits (Count)
system.cpu.dcache.WriteReq.mshrHits::total        39925                       # number of WriteReq MSHR hits (Count)
system.cpu.dcache.WriteReq.mshrMisses::cpu.data         5978                       # number of WriteReq MSHR misses (Count)
system.cpu.dcache.WriteReq.mshrMisses::total         5978                       # number of WriteReq MSHR misses (Count)
system.cpu.dcache.WriteReq.mshrUncacheable::cpu.data            2                       # number of WriteReq MSHR uncacheable (Count)
system.cpu.dcache.WriteReq.mshrUncacheable::total            2                       # number of WriteReq MSHR uncacheable (Count)
system.cpu.dcache.WriteReq.mshrMissLatency::cpu.data    408258500                       # number of WriteReq MSHR miss ticks (Tick)
system.cpu.dcache.WriteReq.mshrMissLatency::total    408258500                       # number of WriteReq MSHR miss ticks (Tick)
system.cpu.dcache.WriteReq.mshrMissRate::cpu.data     0.004018                       # mshr miss rate for WriteReq accesses (Ratio)
system.cpu.dcache.WriteReq.mshrMissRate::total     0.004018                       # mshr miss rate for WriteReq accesses (Ratio)
system.cpu.dcache.WriteReq.avgMshrMissLatency::cpu.data 68293.492807                       # average WriteReq mshr miss latency ((Tick/Count))
system.cpu.dcache.WriteReq.avgMshrMissLatency::total 68293.492807                       # average WriteReq mshr miss latency ((Tick/Count))
system.cpu.dcache.power_state.pwrStateResidencyTicks::UNDEFINED   3061389000                       # Cumulative time (in ticks) in various power states (Tick)
system.cpu.dcache.tags.tagsInUse          1881.847629                       # Average ticks per tags in use ((Tick/Count))
system.cpu.dcache.tags.totalRefs               200099                       # Total number of references to valid blocks. (Count)
system.cpu.dcache.tags.sampledRefs               6745                       # Sample count of references to valid blocks. (Count)
system.cpu.dcache.tags.avgRefs              29.666271                       # Average number of references to valid blocks. ((Count/Count))
system.cpu.dcache.tags.warmupTick              166000                       # The tick when the warmup percentage was hit. (Tick)
system.cpu.dcache.tags.occupancies::cpu.data  1881.847629                       # Average occupied blocks per tick, per requestor ((Count/Tick))
system.cpu.dcache.tags.avgOccs::cpu.data     0.918871                       # Average percentage of cache occupancy ((Ratio/Tick))
system.cpu.dcache.tags.avgOccs::total        0.918871                       # Average percentage of cache occupancy ((Ratio/Tick))
system.cpu.dcache.tags.occupanciesTaskId::1024         2048                       # Occupied blocks per task id (Count)
system.cpu.dcache.tags.ageTaskId_1024::1          221                       # Occupied blocks per task id, per block age (Count)
system.cpu.dcache.tags.ageTaskId_1024::2         1366                       # Occupied blocks per task id, per block age (Count)
system.cpu.dcache.tags.ageTaskId_1024::3          461                       # Occupied blocks per task id, per block age (Count)
system.cpu.dcache.tags.ratioOccsTaskId::1024            1                       # Ratio of occupied blocks and all blocks, per task id (Ratio)
system.cpu.dcache.tags.tagAccesses           30334409                       # Number of tag accesses (Count)
system.cpu.dcache.tags.dataAccesses          30334409                       # Number of data accesses (Count)
system.cpu.dcache.tags.power_state.pwrStateResidencyTicks::UNDEFINED   3061389000                       # Cumulative time (in ticks) in various power states (Tick)
system.cpu.decode.idleCycles                   632894                       # Number of cycles decode is idle (Cycle)
system.cpu.decode.blockedCycles               3239309                       # Number of cycles decode is blocked (Cycle)
system.cpu.decode.runCycles                   1532474                       # Number of cycles decode is running (Cycle)
system.cpu.decode.unblockCycles                573932                       # Number of cycles decode is unblocking (Cycle)
system.cpu.decode.squashCycles                  47854                       # Number of cycles decode is squashing (Cycle)
system.cpu.decode.branchResolved               852509                       # Number of times decode resolved a branch (Count)
[...]
system.mem_ctrls.dram.bytesPerActivate::384-511          262      7.52%     72.69% # Bytes accessed per row activation (Byte)
system.mem_ctrls.dram.bytesPerActivate::512-639           99      2.84%     75.53% # Bytes accessed per row activation (Byte)
system.mem_ctrls.dram.bytesPerActivate::640-767           65      1.87%     77.40% # Bytes accessed per row activation (Byte)
system.mem_ctrls.dram.bytesPerActivate::768-895           35      1.01%     78.40% # Bytes accessed per row activation (Byte)
system.mem_ctrls.dram.bytesPerActivate::896-1023           35      1.01%     79.41% # Bytes accessed per row activation (Byte)
system.mem_ctrls.dram.bytesPerActivate::1024-1151          717     20.59%    100.00% # Bytes accessed per row activation (Byte)
system.mem_ctrls.dram.bytesPerActivate::total         3482                       # Bytes accessed per row activation (Byte)
system.mem_ctrls.dram.bytesRead               1245440                       # Total bytes read (Byte)
system.mem_ctrls.dram.bytesWritten              47424                       # Total bytes written (Byte)
system.mem_ctrls.dram.avgRdBW              429.315140                       # Average DRAM read bandwidth in MiBytes/s ((Byte/Second))
system.mem_ctrls.dram.avgWrBW               16.347509                       # Average DRAM write bandwidth in MiBytes/s ((Byte/Second))
system.mem_ctrls.dram.peakBW                 19207.00                       # Theoretical peak bandwidth in MiByte/s ((Byte/Second))
system.mem_ctrls.dram.busUtil                    2.32                       # Data bus utilization in percentage (Ratio)
system.mem_ctrls.dram.busUtilRead                2.24                       # Data bus utilization in percentage for reads (Ratio)
system.mem_ctrls.dram.busUtilWrite               0.09                       # Data bus utilization in percentage for writes (Ratio)
system.mem_ctrls.dram.pageHitRate               82.77                       # Row buffer hit rate, read and write combined (Ratio)
system.mem_ctrls.dram.power_state.pwrStateResidencyTicks::UNDEFINED   2900992500                       # Cumulative time (in ticks) in various power states (Tick)
system.mem_ctrls.dram.rank0.actEnergy    7163773.344000                       # Energy for activate commands per rank (pJ) (Joule)
system.mem_ctrls.dram.rank0.preEnergy    9528291.158400                       # Energy for precharge commands per rank (pJ) (Joule)
system.mem_ctrls.dram.rank0.readEnergy   58808515.180800                       # Energy for read commands per rank (pJ) (Joule)
system.mem_ctrls.dram.rank0.writeEnergy  1398160.512000                       # Energy for write commands per rank (pJ) (Joule)
system.mem_ctrls.dram.rank0.refreshEnergy 515360477.318402                       # Energy for refresh commands per rank (pJ) (Joule)
system.mem_ctrls.dram.rank0.actBackEnergy 1985806631.491194                       # Energy for active background per rank (pJ) (Joule)
system.mem_ctrls.dram.rank0.preBackEnergy 367950360.959999                       # Energy for precharge background per rank (pJ) (Joule)
system.mem_ctrls.dram.rank0.actPowerDownEnergy            0                       # Energy for active power-down per rank (pJ) (Joule)
system.mem_ctrls.dram.rank0.prePowerDownEnergy            0                       # Energy for precharge power-down per rank (pJ) (Joule)
system.mem_ctrls.dram.rank0.selfRefreshEnergy            0                       # Energy for self refresh per rank (pJ) (Joule)
system.mem_ctrls.dram.rank0.totalEnergy  2946016209.964799                       # Total energy per rank (pJ) (Joule)
system.mem_ctrls.dram.rank0.averagePower  1015.520106                       # Core power per rank (mW) (Watt)
system.mem_ctrls.dram.rank0.totalIdleTime            0                       # Total Idle time Per DRAM Rank (Tick)
system.mem_ctrls.dram.rank0.pwrStateTime::IDLE    553177174                       # Time in different power states (Tick)
system.mem_ctrls.dram.rank0.pwrStateTime::REF    130200000                       # Time in different power states (Tick)
system.mem_ctrls.dram.rank0.pwrStateTime::SREF            0                       # Time in different power states (Tick)
system.mem_ctrls.dram.rank0.pwrStateTime::PRE_PDN            0                       # Time in different power states (Tick)
system.mem_ctrls.dram.rank0.pwrStateTime::ACT   2217615326                       # Time in different power states (Tick)
system.mem_ctrls.dram.rank0.pwrStateTime::ACT_PDN            0                       # Time in different power states (Tick)
system.mem_ctrls.dram.rank1.actEnergy    3689483.616000                       # Energy for activate commands per rank (pJ) (Joule)
system.mem_ctrls.dram.rank1.preEnergy    4909267.507200                       # Energy for precharge commands per rank (pJ) (Joule)
system.mem_ctrls.dram.rank1.readEnergy   23046409.747200                       # Energy for read commands per rank (pJ) (Joule)
system.mem_ctrls.dram.rank1.writeEnergy  1386885.024000                       # Energy for write commands per rank (pJ) (Joule)
system.mem_ctrls.dram.rank1.refreshEnergy 515360477.318402                       # Energy for refresh commands per rank (pJ) (Joule)
system.mem_ctrls.dram.rank1.actBackEnergy 1149390823.694402                       # Energy for active background per rank (pJ) (Joule)
system.mem_ctrls.dram.rank1.preBackEnergy 1010620134.182401                       # Energy for precharge background per rank (pJ) (Joule)
system.mem_ctrls.dram.rank1.actPowerDownEnergy            0                       # Energy for active power-down per rank (pJ) (Joule)
system.mem_ctrls.dram.rank1.prePowerDownEnergy            0                       # Energy for precharge power-down per rank (pJ) (Joule)
system.mem_ctrls.dram.rank1.selfRefreshEnergy            0                       # Energy for self refresh per rank (pJ) (Joule)
system.mem_ctrls.dram.rank1.totalEnergy  2708403481.089602                       # Total energy per rank (pJ) (Joule)
system.mem_ctrls.dram.rank1.averagePower   933.612714                       # Core power per rank (mW) (Watt)
system.mem_ctrls.dram.rank1.totalIdleTime            0                       # Total Idle time Per DRAM Rank (Tick)
system.mem_ctrls.dram.rank1.pwrStateTime::IDLE   1539410926                       # Time in different power states (Tick)
system.mem_ctrls.dram.rank1.pwrStateTime::REF    130200000                       # Time in different power states (Tick)
system.mem_ctrls.dram.rank1.pwrStateTime::SREF            0                       # Time in different power states (Tick)
system.mem_ctrls.dram.rank1.pwrStateTime::PRE_PDN            0                       # Time in different power states (Tick)
system.mem_ctrls.dram.rank1.pwrStateTime::ACT   1231381574                       # Time in different power states (Tick)
system.mem_ctrls.dram.rank1.pwrStateTime::ACT_PDN            0                       # Time in different power states (Tick)
system.mem_ctrls.power_state.pwrStateResidencyTicks::UNDEFINED   2900992500                       # Cumulative time (in ticks) in various power states (Tick)
system.membus.transDist::ReadResp               11964                       # Transaction distribution (Count)
system.membus.transDist::WritebackDirty           658                       # Transaction distribution (Count)
system.membus.transDist::WritebackClean           141                       # Transaction distribution (Count)
system.membus.transDist::CleanEvict              7197                       # Transaction distribution (Count)
system.membus.transDist::UpgradeReq                99                       # Transaction distribution (Count)
system.membus.transDist::ReadExReq               7496                       # Transaction distribution (Count)
system.membus.transDist::ReadExResp              7496                       # Transaction distribution (Count)
system.membus.transDist::ReadCleanReq           11964                       # Transaction distribution (Count)
system.membus.transDist::InvalidateReq             12                       # Transaction distribution (Count)
system.membus.pktCount_system.l2.mem_side_port::system.mem_ctrls.port        47027                       # Packet count per connected requestor and responder (Count)
system.membus.pktCount_system.l2.mem_side_port::total        47027                       # Packet count per connected requestor and responder (Count)
system.membus.pktCount::total                   47027                       # Packet count per connected requestor and responder (Count)
system.membus.pktSize_system.l2.mem_side_port::system.mem_ctrls.port      1296576                       # Cumulative packet size per connected requestor and responder (Byte)
system.membus.pktSize_system.l2.mem_side_port::total      1296576                       # Cumulative packet size per connected requestor and responder (Byte)
system.membus.pktSize::total                  1296576                       # Cumulative packet size per connected requestor and responder (Byte)
system.membus.snoops                                0                       # Total snoops (Count)
system.membus.snoopTraffic                          0                       # Total snoop traffic (Byte)
system.membus.snoopFanout::samples              19571                       # Request fanout histogram (Count)
system.membus.snoopFanout::mean                     0                       # Request fanout histogram (Count)
system.membus.snoopFanout::stdev                    0                       # Request fanout histogram (Count)
system.membus.snoopFanout::underflows               0      0.00%      0.00% # Request fanout histogram (Count)
system.membus.snoopFanout::0                    19571    100.00%    100.00% # Request fanout histogram (Count)
system.membus.snoopFanout::1                        0      0.00%    100.00% # Request fanout histogram (Count)
system.membus.snoopFanout::2                        0      0.00%    100.00% # Request fanout histogram (Count)
system.membus.snoopFanout::overflows                0      0.00%    100.00% # Request fanout histogram (Count)
system.membus.snoopFanout::min_value                0                       # Request fanout histogram (Count)
system.membus.snoopFanout::max_value                0                       # Request fanout histogram (Count)
system.membus.snoopFanout::total                19571                       # Request fanout histogram (Count)
system.membus.badaddr_responder.power_state.pwrStateResidencyTicks::UNDEFINED   2900992500                       # Cumulative time (in ticks) in various power states (Tick)
system.membus.power_state.pwrStateResidencyTicks::UNDEFINED   2900992500                       # Cumulative time (in ticks) in various power states (Tick)
system.membus.reqLayer1.occupancy            39335500                       # Layer occupancy (ticks) (Tick)
system.membus.reqLayer1.utilization               0.0                       # Layer utilization (Ratio)
system.membus.respLayer2.occupancy          103515742                       # Layer occupancy (ticks) (Tick)
system.membus.respLayer2.utilization              0.0                       # Layer utilization (Ratio)
system.membus.snoop_filter.totRequests          27567                       # Total number of requests made to the snoop filter. (Count)
system.membus.snoop_filter.hitSingleRequests        10548                       # Number of requests hitting in the snoop filter with a single holder of the requested data. (Count)
system.membus.snoop_filter.hitMultiRequests            0                       # Number of requests hitting in the snoop filter with multiple (>1) holders of the requested data. (Count)
system.membus.snoop_filter.totSnoops                0                       # Total number of snoops made to the snoop filter. (Count)
system.membus.snoop_filter.hitSingleSnoops            0                       # Number of snoops hitting in the snoop filter with a single holder of the requested data. (Count)
system.membus.snoop_filter.hitMultiSnoops            0                       # Number of snoops hitting in the snoop filter with multiple (>1) holders of the requested data. (Count)
system.mmcs.power_state.pwrStateResidencyTicks::UNDEFINED   2900992500                       # Cumulative time (in ticks) in various power states (Tick)
system.tol2bus.transDist::ReadResp              13188                       # Transaction distribution (Count)
system.tol2bus.transDist::WritebackDirty         8527                       # Transaction distribution (Count)
system.tol2bus.transDist::WritebackClean         2732                       # Transaction distribution (Count)
system.tol2bus.transDist::CleanEvict            10354                       # Transaction distribution (Count)
system.tol2bus.transDist::UpgradeReq               98                       # Transaction distribution (Count)
system.tol2bus.transDist::UpgradeResp              98                       # Transaction distribution (Count)
system.tol2bus.transDist::ReadExReq              7714                       # Transaction distribution (Count)
system.tol2bus.transDist::ReadExResp             7714                       # Transaction distribution (Count)
system.tol2bus.transDist::ReadCleanReq             46                       # Transaction distribution (Count)
system.tol2bus.transDist::ReadSharedReq         13142                       # Transaction distribution (Count)
system.tol2bus.transDist::InvalidateReq            12                       # Transaction distribution (Count)
system.tol2bus.transDist::InvalidateResp           12                       # Transaction distribution (Count)
system.tol2bus.pktCount_system.cpu.icache.mem_side_port::system.l2.cpu_side_port          103                       # Packet count per connected requestor and responder (Count)
system.tol2bus.pktCount_system.cpu.dcache.mem_side_port::system.l2.cpu_side_port        31540                       # Packet count per connected requestor and responder (Count)
system.tol2bus.pktCount_system.cpu.itb_walker_cache.mem_side_port::system.l2.cpu_side_port         8186                       # Packet count per connected requestor and responder (Count)
system.tol2bus.pktCount_system.cpu.dtb_walker_cache.mem_side_port::system.l2.cpu_side_port        22622                       # Packet count per connected requestor and responder (Count)
system.tol2bus.pktCount::total                  62451                       # Packet count per connected requestor and responder (Count)
system.tol2bus.pktSize_system.cpu.icache.mem_side_port::system.l2.cpu_side_port         3648                       # Cumulative packet size per connected requestor and responder (Byte)
system.tol2bus.pktSize_system.cpu.dcache.mem_side_port::system.l2.cpu_side_port      1336576                       # Cumulative packet size per connected requestor and responder (Byte)
system.tol2bus.pktSize_system.cpu.itb_walker_cache.mem_side_port::system.l2.cpu_side_port       174592                       # Cumulative packet size per connected requestor and responder (Byte)
system.tol2bus.pktSize_system.cpu.dtb_walker_cache.mem_side_port::system.l2.cpu_side_port       467584                       # Cumulative packet size per connected requestor and responder (Byte)
system.tol2bus.pktSize::total                 1982400                       # Cumulative packet size per connected requestor and responder (Byte)
system.tol2bus.snoops                            1186                       # Total snoops (Count)
system.tol2bus.snoopTraffic                     75904                       # Total snoop traffic (Byte)
system.tol2bus.snoopFanout::samples             21811                       # Request fanout histogram (Count)
system.tol2bus.snoopFanout::mean             0.183944                       # Request fanout histogram (Count)
system.tol2bus.snoopFanout::stdev            0.486876                       # Request fanout histogram (Count)
system.tol2bus.snoopFanout::underflows              0      0.00%      0.00% # Request fanout histogram (Count)
system.tol2bus.snoopFanout::0                   18747     85.95%     85.95% # Request fanout histogram (Count)
system.tol2bus.snoopFanout::1                    2116      9.70%     95.65% # Request fanout histogram (Count)
system.tol2bus.snoopFanout::2                     948      4.35%    100.00% # Request fanout histogram (Count)
system.tol2bus.snoopFanout::3                       0      0.00%    100.00% # Request fanout histogram (Count)
system.tol2bus.snoopFanout::4                       0      0.00%    100.00% # Request fanout histogram (Count)
system.tol2bus.snoopFanout::overflows               0      0.00%    100.00% # Request fanout histogram (Count)
system.tol2bus.snoopFanout::min_value               0                       # Request fanout histogram (Count)
system.tol2bus.snoopFanout::max_value               2                       # Request fanout histogram (Count)
system.tol2bus.snoopFanout::total               21811                       # Request fanout histogram (Count)
system.tol2bus.power_state.pwrStateResidencyTicks::UNDEFINED   2900992500                       # Cumulative time (in ticks) in various power states (Tick)
system.tol2bus.reqLayer0.occupancy           26143000                       # Layer occupancy (ticks) (Tick)
system.tol2bus.reqLayer0.utilization              0.0                       # Layer utilization (Ratio)
system.tol2bus.respLayer0.occupancy             46000                       # Layer occupancy (ticks) (Tick)
system.tol2bus.respLayer0.utilization             0.0                       # Layer utilization (Ratio)
system.tol2bus.respLayer1.occupancy          10491000                       # Layer occupancy (ticks) (Tick)
system.tol2bus.respLayer1.utilization             0.0                       # Layer utilization (Ratio)
system.tol2bus.respLayer2.occupancy           2777902                       # Layer occupancy (ticks) (Tick)
system.tol2bus.respLayer2.utilization             0.0                       # Layer utilization (Ratio)
system.tol2bus.respLayer3.occupancy           7721439                       # Layer occupancy (ticks) (Tick)
system.tol2bus.respLayer3.utilization             0.0                       # Layer utilization (Ratio)
system.tol2bus.snoop_filter.totRequests         41826                       # Total number of requests made to the snoop filter. (Count)
system.tol2bus.snoop_filter.hitSingleRequests        19900                       # Number of requests hitting in the snoop filter with a single holder of the requested data. (Count)
system.tol2bus.snoop_filter.hitMultiRequests         4010                       # Number of requests hitting in the snoop filter with multiple (>1) holders of the requested data. (Count)
system.tol2bus.snoop_filter.totSnoops               0                       # Total number of snoops made to the snoop filter. (Count)
system.tol2bus.snoop_filter.hitSingleSnoops            0                       # Number of snoops hitting in the snoop filter with a single holder of the requested data. (Count)
system.tol2bus.snoop_filter.hitMultiSnoops            0                       # Number of snoops hitting in the snoop filter with multiple (>1) holders of the requested data. (Count)
system.uartlite.power_state.pwrStateResidencyTicks::UNDEFINED   2900992500                       # Cumulative time (in ticks) in various power states (Tick)
system.voltage_domain.voltage                       1                       # Voltage in Volts (Volt)
system.workload.inst.arm                            0                       # number of arm instructions executed (Count)
system.workload.inst.quiesce                        0                       # number of quiesce instructions executed (Count)

---------- End Simulation Statistics   ----------
