
---------- Begin Simulation Statistics ----------
simSeconds                                   0.005019                       # Number of seconds simulated (Second)
simTicks                                   5018946000                       # Number of ticks simulated (Tick)
finalTick                                  5018946000                       # Number of ticks from beginning of simulation (restored from checkpoints and never reset) (Tick)
simFreq                                  1000000000000                       # The number of ticks per simulated second ((Tick/Second))
hostSeconds                                    197.25                       # Real time elapsed on the host (Second)
hostTickRate                                 25444262                       # The number of ticks simulated per host second (ticks/s) ((Tick/Second))
hostMemory                                   19309184                       # Number of bytes of host memory used (Byte)
simInsts                                     10000002                       # Number of instructions simulated (Count)
simOps                                       10000002                       # Number of ops (including micro ops) simulated (Count)
hostInstRate                                    50696                       # Simulator instruction rate (inst/s) ((Count/Second))
hostOpRate                                      50696                       # Simulator op (including micro ops) rate (op/s) ((Count/Second))
system.bridge.power_state.pwrStateResidencyTicks::UNDEFINED   5018946000                       # Cumulative time (in ticks) in various power states (Tick)
system.clk_domain.clock                          1000                       # Clock period in ticks (Tick)
system.cpu.numCycles                         10037893                       # Number of cpu cycles simulated (Cycle)
system.cpu.numWorkItemsStarted                      0                       # Number of work items this cpu started (Count)
system.cpu.numWorkItemsCompleted                    0                       # Number of work items this cpu completed (Count)
system.cpu.instsAdded                        10296616                       # Number of instructions added to the IQ (excludes non-spec) (Count)
system.cpu.nonSpecInstsAdded                       33                       # Number of non-speculative instructions added to the IQ (Count)
system.cpu.instsIssued                       10297906                       # Number of instructions issued (Count)
system.cpu.squashedInstsIssued                   6790                       # Number of squashed instructions issued (Count)
system.cpu.squashedInstsExamined               296527                       # Number of squashed instructions iterated over during squash; mainly for profiling (Count)
system.cpu.squashedOperandsExamined            100964                       # Number of squashed operands that are examined and possibly removed from graph (Count)
system.cpu.numIssuedDist::samples            10031476                       # Number of insts issued each cycle (Count)
system.cpu.numIssuedDist::mean               1.026559                       # Number of insts issued each cycle (Count)
system.cpu.numIssuedDist::stdev              2.111807                       # Number of insts issued each cycle (Count)
system.cpu.numIssuedDist::underflows                0      0.00%      0.00% # Number of insts issued each cycle (Count)
system.cpu.numIssuedDist::0                   7534476     75.11%     75.11% # Number of insts issued each cycle (Count)
system.cpu.numIssuedDist::1                    418954      4.18%     79.28% # Number of insts issued each cycle (Count)
system.cpu.numIssuedDist::2                    304677      3.04%     82.32% # Number of insts issued each cycle (Count)
system.cpu.numIssuedDist::3                    382564      3.81%     86.14% # Number of insts issued each cycle (Count)
system.cpu.numIssuedDist::4                    318975      3.18%     89.32% # Number of insts issued each cycle (Count)
system.cpu.numIssuedDist::5                    303899      3.03%     92.34% # Number of insts issued each cycle (Count)
system.cpu.numIssuedDist::6                    316871      3.16%     95.50% # Number of insts issued each cycle (Count)
system.cpu.numIssuedDist::7                    183195      1.83%     97.33% # Number of insts issued each cycle (Count)
system.cpu.numIssuedDist::8                    267865      2.67%    100.00% # Number of insts issued each cycle (Count)
system.cpu.numIssuedDist::overflows                 0      0.00%    100.00% # Number of insts issued each cycle (Count)
system.cpu.numIssuedDist::min_value                 0                       # Number of insts issued each cycle (Count)
system.cpu.numIssuedDist::max_value                 8                       # Number of insts issued each cycle (Count)
system.cpu.numIssuedDist::total              10031476                       # Number of insts issued each cycle (Count)
system.cpu.statFuBusy::No_OpClass                   0      0.00%      0.00% # attempts to use FU when none available (Count)
system.cpu.statFuBusy::IntAlu                   76267     19.49%     19.49% # attempts to use FU when none available (Count)
system.cpu.statFuBusy::IntMult                      0      0.00%     19.49% # attempts to use FU when none available (Count)
system.cpu.statFuBusy::IntDiv                       0      0.00%     19.49% # attempts to use FU when none available (Count)
system.cpu.statFuBusy::FloatAdd                     0      0.00%     19.49% # attempts to use FU when none available (Count)
system.cpu.statFuBusy::FloatCmp                     0      0.00%     19.49% # attempts to use FU when none available (Count)
system.cpu.statFuBusy::FloatCvt                     0      0.00%     19.49% # attempts to use FU when none available (Count)
system.cpu.statFuBusy::FloatMult                    0      0.00%     19.49% # attempts to use FU when none available (Count)
system.cpu.statFuBusy::FloatMultAcc                 0      0.00%     19.49% # attempts to use FU when none available (Count)
system.cpu.statFuBusy::FloatDiv                     0      0.00%     19.49% # attempts to use FU when none available (Count)
system.cpu.statFuBusy::FloatMisc                    0      0.00%     19.49% # attempts to use FU when none available (Count)
system.cpu.statFuBusy::FloatSqrt                    0      0.00%     19.49% # attempts to use FU when none available (Count)
system.cpu.statFuBusy::SimdAdd                      0      0.00%     19.49% # attempts to use FU when none available (Count)
system.cpu.statFuBusy::SimdAddAcc                   0      0.00%     19.49% # attempts to use FU when none available (Count)
system.cpu.statFuBusy::SimdAlu                      0      0.00%     19.49% # attempts to use FU when none available (Count)
system.cpu.statFuBusy::SimdCmp                      0      0.00%     19.49% # attempts to use FU when none available (Count)
system.cpu.statFuBusy::SimdCvt                      0      0.00%     19.49% # attempts to use FU when none available (Count)
system.cpu.statFuBusy::SimdMisc                     0      0.00%     19.49% # attempts to use FU when none available (Count)
system.cpu.statFuBusy::SimdMult                     0      0.00%     19.49% # attempts to use FU when none available (Count)
system.cpu.statFuBusy::SimdMultAcc                  0      0.00%     19.49% # attempts to use FU when none available (Count)
system.cpu.statFuBusy::SimdShift                    0      0.00%     19.49% # attempts to use FU when none available (Count)
system.cpu.statFuBusy::SimdShiftAcc                 0      0.00%     19.49% # attempts to use FU when none available (Count)
system.cpu.statFuBusy::SimdDiv                      0      0.00%     19.49% # attempts to use FU when none available (Count)
system.cpu.statFuBusy::SimdSqrt                     0      0.00%     19.49% # attempts to use FU when none available (Count)
system.cpu.statFuBusy::SimdFloatAdd                 0      0.00%     19.49% # attempts to use FU when none available (Count)
system.cpu.statFuBusy::SimdFloatAlu                 0      0.00%     19.49% # attempts to use FU when none available (Count)
system.cpu.statFuBusy::SimdFloatCmp                 0      0.00%     19.49% # attempts to use FU when none available (Count)
system.cpu.statFuBusy::SimdFloatCvt                 0      0.00%     19.49% # attempts to use FU when none available (Count)
system.cpu.statFuBusy::SimdFloatDiv                 0      0.00%     19.49% # attempts to use FU when none available (Count)
system.cpu.statFuBusy::SimdFloatMisc                0      0.00%     19.49% # attempts to use FU when none available (Count)
system.cpu.statFuBusy::SimdFloatMult                0      0.00%     19.49% # attempts to use FU when none available (Count)
system.cpu.statFuBusy::SimdFloatMultAcc             0      0.00%     19.49% # attempts to use FU when none available (Count)
system.cpu.statFuBusy::SimdFloatSqrt                0      0.00%     19.49% # attempts to use FU when none available (Count)
system.cpu.statFuBusy::SimdReduceAdd                0      0.00%     19.49% # attempts to use FU when none available (Count)
system.cpu.statFuBusy::SimdReduceAlu                0      0.00%     19.49% # attempts to use FU when none available (Count)
system.cpu.statFuBusy::SimdReduceCmp                0      0.00%     19.49% # attempts to use FU when none available (Count)
system.cpu.statFuBusy::SimdFloatReduceAdd            0      0.00%     19.49% # attempts to use FU when none available (Count)
system.cpu.statFuBusy::SimdFloatReduceCmp            0      0.00%     19.49% # attempts to use FU when none available (Count)
system.cpu.statFuBusy::SimdAes                      0      0.00%     19.49% # attempts to use FU when none available (Count)
system.cpu.statFuBusy::SimdAesMix                   0      0.00%     19.49% # attempts to use FU when none available (Count)
system.cpu.statFuBusy::SimdSha1Hash                 0      0.00%     19.49% # attempts to use FU when none available (Count)
system.cpu.statFuBusy::SimdSha1Hash2                0      0.00%     19.49% # attempts to use FU when none available (Count)
system.cpu.statFuBusy::SimdSha256Hash               0      0.00%     19.49% # attempts to use FU when none available (Count)
system.cpu.statFuBusy::SimdSha256Hash2              0      0.00%     19.49% # attempts to use FU when none available (Count)
system.cpu.statFuBusy::SimdShaSigma2                0      0.00%     19.49% # attempts to use FU when none available (Count)
system.cpu.statFuBusy::SimdShaSigma3                0      0.00%     19.49% # attempts to use FU when none available (Count)
system.cpu.statFuBusy::SimdPredAlu                  0      0.00%     19.49% # attempts to use FU when none available (Count)
system.cpu.statFuBusy::MemRead                 184592     47.18%     66.67% # attempts to use FU when none available (Count)
system.cpu.statFuBusy::MemWrite                130393     33.33%    100.00% # attempts to use FU when none available (Count)
system.cpu.statFuBusy::FloatMemRead                 7      0.00%    100.00% # attempts to use FU when none available (Count)
system.cpu.statFuBusy::FloatMemWrite                0      0.00%    100.00% # attempts to use FU when none available (Count)
system.cpu.statFuBusy::IprAccess                    0      0.00%    100.00% # attempts to use FU when none available (Count)
system.cpu.statFuBusy::InstPrefetch                 0      0.00%    100.00% # attempts to use FU when none available (Count)
system.cpu.statIssuedInstType_0::No_OpClass           40      0.00%      0.00% # Number of instructions issued per FU type, per thread (Count)
system.cpu.statIssuedInstType_0::IntAlu       6116224     59.39%     59.39% # Number of instructions issued per FU type, per thread (Count)
system.cpu.statIssuedInstType_0::IntMult            2      0.00%     59.39% # Number of instructions issued per FU type, per thread (Count)
system.cpu.statIssuedInstType_0::IntDiv             0      0.00%     59.39% # Number of instructions issued per FU type, per thread (Count)
system.cpu.statIssuedInstType_0::FloatAdd            0      0.00%     59.39% # Number of instructions issued per FU type, per thread (Count)
system.cpu.statIssuedInstType_0::FloatCmp            0      0.00%     59.39% # Number of instructions issued per FU type, per thread (Count)
system.cpu.statIssuedInstType_0::FloatCvt            0      0.00%     59.39% # Number of instructions issued per FU type, per thread (Count)
system.cpu.statIssuedInstType_0::FloatMult            0      0.00%     59.39% # Number of instructions issued per FU type, per thread (Count)
system.cpu.statIssuedInstType_0::FloatMultAcc            0      0.00%     59.39% # Number of instructions issued per FU type, per thread (Count)
system.cpu.statIssuedInstType_0::FloatDiv            0      0.00%     59.39% # Number of instructions issued per FU type, per thread (Count)
system.cpu.statIssuedInstType_0::FloatMisc            0      0.00%     59.39% # Number of instructions issued per FU type, per thread (Count)
system.cpu.statIssuedInstType_0::FloatSqrt            0      0.00%     59.39% # Number of instructions issued per FU type, per thread (Count)
system.cpu.statIssuedInstType_0::SimdAdd            0      0.00%     59.39% # Number of instructions issued per FU type, per thread (Count)
system.cpu.statIssuedInstType_0::SimdAddAcc            0      0.00%     59.39% # Number of instructions issued per FU type, per thread (Count)
system.cpu.statIssuedInstType_0::SimdAlu            0      0.00%     59.39% # Number of instructions issued per FU type, per thread (Count)
system.cpu.statIssuedInstType_0::SimdCmp            0      0.00%     59.39% # Number of instructions issued per FU type, per thread (Count)
system.cpu.statIssuedInstType_0::SimdCvt            0      0.00%     59.39% # Number of instructions issued per FU type, per thread (Count)
system.cpu.statIssuedInstType_0::SimdMisc            0      0.00%     59.39% # Number of instructions issued per FU type, per thread (Count)
system.cpu.statIssuedInstType_0::SimdMult            0      0.00%     59.39% # Number of instructions issued per FU type, per thread (Count)
system.cpu.statIssuedInstType_0::SimdMultAcc            0      0.00%     59.39% # Number of instructions issued per FU type, per thread (Count)
system.cpu.statIssuedInstType_0::SimdShift            0      0.00%     59.39% # Number of instructions issued per FU type, per thread (Count)
system.cpu.statIssuedInstType_0::SimdShiftAcc            0      0.00%     59.39% # Number of instructions issued per FU type, per thread (Count)
system.cpu.statIssuedInstType_0::SimdDiv            0      0.00%     59.39% # Number of instructions issued per FU type, per thread (Count)
system.cpu.statIssuedInstType_0::SimdSqrt            0      0.00%     59.39% # Number of instructions issued per FU type, per thread (Count)
system.cpu.statIssuedInstType_0::SimdFloatAdd            0      0.00%     59.39% # Number of instructions issued per FU type, per thread (Count)
system.cpu.statIssuedInstType_0::SimdFloatAlu            0      0.00%     59.39% # Number of instructions issued per FU type, per thread (Count)
system.cpu.statIssuedInstType_0::SimdFloatCmp            0      0.00%     59.39% # Number of instructions issued per FU type, per thread (Count)
system.cpu.statIssuedInstType_0::SimdFloatCvt            0      0.00%     59.39% # Number of instructions issued per FU type, per thread (Count)
system.cpu.statIssuedInstType_0::SimdFloatDiv            0      0.00%     59.39% # Number of instructions issued per FU type, per thread (Count)
system.cpu.statIssuedInstType_0::SimdFloatMisc            0      0.00%     59.39% # Number of instructions issued per FU type, per thread (Count)
system.cpu.statIssuedInstType_0::SimdFloatMult            0      0.00%     59.39% # Number of instructions issued per FU type, per thread (Count)
system.cpu.statIssuedInstType_0::SimdFloatMultAcc            0      0.00%     59.39% # Number of instructions issued per FU type, per thread (Count)
system.cpu.statIssuedInstType_0::SimdFloatSqrt            0      0.00%     59.39% # Number of instructions issued per FU type, per thread (Count)
system.cpu.statIssuedInstType_0::SimdReduceAdd            0      0.00%     59.39% # Number of instructions issued per FU type, per thread (Count)
system.cpu.statIssuedInstType_0::SimdReduceAlu            0      0.00%     59.39% # Number of instructions issued per FU type, per thread (Count)
system.cpu.statIssuedInstType_0::SimdReduceCmp            0      0.00%     59.39% # Number of instructions issued per FU type, per thread (Count)
system.cpu.statIssuedInstType_0::SimdFloatReduceAdd            0      0.00%     59.39% # Number of instructions issued per FU type, per thread (Count)
system.cpu.statIssuedInstType_0::SimdFloatReduceCmp            0      0.00%     59.39% # Number of instructions issued per FU type, per thread (Count)
system.cpu.statIssuedInstType_0::SimdAes            0      0.00%     59.39% # Number of instructions issued per FU type, per thread (Count)
system.cpu.statIssuedInstType_0::SimdAesMix            0      0.00%     59.39% # Number of instructions issued per FU type, per thread (Count)
system.cpu.statIssuedInstType_0::SimdSha1Hash            0      0.00%     59.39% # Number of instructions issued per FU type, per thread (Count)
system.cpu.statIssuedInstType_0::SimdSha1Hash2            0      0.00%     59.39% # Number of instructions issued per FU type, per thread (Count)
system.cpu.statIssuedInstType_0::SimdSha256Hash            0      0.00%     59.39% # Number of instructions issued per FU type, per thread (Count)
system.cpu.statIssuedInstType_0::SimdSha256Hash2            0      0.00%     59.39% # Number of instructions issued per FU type, per thread (Count)
system.cpu.statIssuedInstType_0::SimdShaSigma2            0      0.00%     59.39% # Number of instructions issued per FU type, per thread (Count)
system.cpu.statIssuedInstType_0::SimdShaSigma3            0      0.00%     59.39% # Number of instructions issued per FU type, per thread (Count)
system.cpu.statIssuedInstType_0::SimdPredAlu            0      0.00%     59.39% # Number of instructions issued per FU type, per thread (Count)
system.cpu.statIssuedInstType_0::MemRead      2886649     28.03%     87.42% # Number of instructions issued per FU type, per thread (Count)
system.cpu.statIssuedInstType_0::MemWrite      1294959     12.57%    100.00% # Number of instructions issued per FU type, per thread (Count)
system.cpu.statIssuedInstType_0::FloatMemRead           32      0.00%    100.00% # Number of instructions issued per FU type, per thread (Count)
system.cpu.statIssuedInstType_0::FloatMemWrite            0      0.00%    100.00% # Number of instructions issued per FU type, per thread (Count)
system.cpu.statIssuedInstType_0::IprAccess            0      0.00%    100.00% # Number of instructions issued per FU type, per thread (Count)
system.cpu.statIssuedInstType_0::InstPrefetch            0      0.00%    100.00% # Number of instructions issued per FU type, per thread (Count)
system.cpu.statIssuedInstType_0::total       10297906                       # Number of instructions issued per FU type, per thread (Count)
system.cpu.issueRate                         1.025903                       # Inst issue rate ((Count/Cycle))
system.cpu.fuBusy                              391259                       # FU busy when requested (Count)
system.cpu.fuBusyRate                        0.037994                       # FU busy rate (busy events/executed inst) ((Count/Count))
system.cpu.intInstQueueReads                 31025266                       # Number of integer instruction queue reads (Count)
system.cpu.intInstQueueWrites                10593285                       # Number of integer instruction queue writes (Count)
system.cpu.intInstQueueWakeupAccesses        10214618                       # Number of integer instruction queue wakeup accesses (Count)
system.cpu.fpInstQueueReads                        71                       # Number of floating instruction queue reads (Count)
system.cpu.fpInstQueueWrites                       32                       # Number of floating instruction queue writes (Count)
system.cpu.fpInstQueueWakeupAccesses               32                       # Number of floating instruction queue wakeup accesses (Count)
system.cpu.vecInstQueueReads                        0                       # Number of vector instruction queue reads (Count)
system.cpu.vecInstQueueWrites                       0                       # Number of vector instruction queue writes (Count)
system.cpu.vecInstQueueWakeupAccesses               0                       # Number of vector instruction queue wakeup accesses (Count)
system.cpu.intAluAccesses                    10689086                       # Number of integer alu accesses (Count)
system.cpu.fpAluAccesses                           39                       # Number of floating point alu accesses (Count)
system.cpu.vecAluAccesses                           0                       # Number of vector alu accesses (Count)
system.cpu.numInsts                          10222019                       # Number of executed instructions (Count)
system.cpu.numLoadInsts                       2818066                       # Number of load instructions executed (Count)
system.cpu.numSquashedInsts                     12353                       # Number of squashed instructions skipped in execute (Count)
system.cpu.numSwp                                   0                       # Number of swp insts executed (Count)
system.cpu.numNop                                   0                       # Number of nop insts executed (Count)
system.cpu.numRefs                            4111075                       # Number of memory reference insts executed (Count)
system.cpu.numBranches                        2333660                       # Number of branches executed (Count)
system.cpu.numStoreInsts                      1293009                       # Number of stores executed (Count)
system.cpu.numRate                           1.018343                       # Inst execution rate ((Count/Cycle))
system.cpu.timesIdled                              63                       # Number of times that the entire CPU went into an idle state and unscheduled itself (Count)
system.cpu.idleCycles                            6417                       # Total number of cycles that the CPU has spent unscheduled due to idling (Cycle)
system.cpu.committedInsts                    10000002                       # Number of Instructions Simulated (Count)
system.cpu.committedOps                      10000002                       # Number of Ops (including micro ops) Simulated (Count)
system.cpu.cpi                               1.003789                       # CPI: Cycles Per Instruction ((Cycle/Count))
system.cpu.totalCpi                          1.003789                       # CPI: Total CPI of All Threads ((Cycle/Count))
system.cpu.ipc                               0.996225                       # IPC: Instructions Per Cycle ((Count/Cycle))
system.cpu.totalIpc                          0.996225                       # IPC: Total IPC of All Threads ((Count/Cycle))
system.cpu.intRegfileReads                   11132641                       # Number of integer regfile reads (Count)
system.cpu.intRegfileWrites                   6866057                       # Number of integer regfile writes (Count)
system.cpu.fpRegfileReads                          32                       # Number of floating regfile reads (Count)
system.cpu.fpRegfileWrites                         32                       # Number of floating regfile writes (Count)
system.cpu.miscRegfileReads                 114215429                       # number of misc regfile reads (Count)
system.cpu.miscRegfileWrites                       59                       # number of misc regfile writes (Count)
system.cpu.lastCommitTick                  5018946000                       # The last tick to commit an instruction (Count)
system.cpu.MemDepUnit__0.insertedLoads        2848183                       # Number of loads inserted to the mem dependence unit. (Count)
system.cpu.MemDepUnit__0.insertedStores       1301323                       # Number of stores inserted to the mem dependence unit. (Count)
system.cpu.MemDepUnit__0.conflictingLoads       118817                       # Number of conflicting loads. (Count)
system.cpu.MemDepUnit__0.conflictingStores       201351                       # Number of conflicting stores. (Count)
system.cpu.MemDepUnit__1.insertedLoads              0                       # Number of loads inserted to the mem dependence unit. (Count)
system.cpu.MemDepUnit__1.insertedStores             0                       # Number of stores inserted to the mem dependence unit. (Count)
system.cpu.MemDepUnit__1.conflictingLoads            0                       # Number of conflicting loads. (Count)
system.cpu.MemDepUnit__1.conflictingStores            0                       # Number of conflicting stores. (Count)
system.cpu.MemDepUnit__2.insertedLoads              0                       # Number of loads inserted to the mem dependence unit. (Count)
system.cpu.MemDepUnit__2.insertedStores             0                       # Number of stores inserted to the mem dependence unit. (Count)
system.cpu.MemDepUnit__2.conflictingLoads            0                       # Number of conflicting loads. (Count)
system.cpu.MemDepUnit__2.conflictingStores            0                       # Number of conflicting stores. (Count)
system.cpu.MemDepUnit__3.insertedLoads              0                       # Number of loads inserted to the mem dependence unit. (Count)
system.cpu.MemDepUnit__3.insertedStores             0                       # Number of stores inserted to the mem dependence unit. (Count)
system.cpu.MemDepUnit__3.conflictingLoads            0                       # Number of conflicting loads. (Count)
system.cpu.MemDepUnit__3.conflictingStores            0                       # Number of conflicting stores. (Count)
system.cpu.branchPred.lookups                       0                       # Number of BP lookups (Count)
system.cpu.branchPred.condPredicted                 0                       # Number of conditional branches predicted (Count)
system.cpu.branchPred.condIncorrect              5948                       # Number of conditional branches incorrect (Count)
system.cpu.branchPred.BTBLookups                    0                       # Number of BTB lookups (Count)
system.cpu.branchPred.BTBHits                       0                       # Number of BTB hits (Count)
system.cpu.branchPred.BTBHitRatio                 nan                       # BTB Hit Ratio (Ratio)
system.cpu.branchPred.RASUsed                       0                       # Number of times the RAS was used to get a target. (Count)
system.cpu.branchPred.RASIncorrect                261                       # Number of incorrect RAS predictions. (Count)
system.cpu.branchPred.indirectLookups               0                       # Number of indirect predictor lookups. (Count)
system.cpu.branchPred.indirectHits                  0                       # Number of indirect target hits. (Count)
system.cpu.branchPred.indirectMisses                0                       # Number of indirect misses. (Count)
system.cpu.branchPred.indirectMispredicted          405                       # Number of mispredicted indirect branches. (Count)
system.cpu.branchPred.stream_tage.coldMisses            0                       # ittage the provider component lookup hit (Count)
system.cpu.branchPred.stream_tage.capacityMisses            0                       # ittage the alternate prediction lookup hit (Count)
system.cpu.branchPred.stream_tage.compulsoryMisses            0                       # ittage the provider component pred hit (Count)
system.cpu.branchPred.stream_tage.providerTableDist::samples      3433421                       # the distribution of provider component (Count)
system.cpu.branchPred.stream_tage.providerTableDist::mean     1.492937                       # the distribution of provider component (Count)
system.cpu.branchPred.stream_tage.providerTableDist::stdev     2.391585                       # the distribution of provider component (Count)
system.cpu.branchPred.stream_tage.providerTableDist::underflows            0      0.00%      0.00% # the distribution of provider component (Count)
system.cpu.branchPred.stream_tage.providerTableDist::0      1397323     40.70%     40.70% # the distribution of provider component (Count)
system.cpu.branchPred.stream_tage.providerTableDist::1      1047731     30.52%     71.21% # the distribution of provider component (Count)
system.cpu.branchPred.stream_tage.providerTableDist::2       483356     14.08%     85.29% # the distribution of provider component (Count)
system.cpu.branchPred.stream_tage.providerTableDist::3        99157      2.89%     88.18% # the distribution of provider component (Count)
system.cpu.branchPred.stream_tage.providerTableDist::4       109768      3.20%     91.38% # the distribution of provider component (Count)
system.cpu.branchPred.stream_tage.providerTableDist::5        71923      2.09%     93.47% # the distribution of provider component (Count)
system.cpu.branchPred.stream_tage.providerTableDist::6        48251      1.41%     94.88% # the distribution of provider component (Count)
system.cpu.branchPred.stream_tage.providerTableDist::7        45510      1.33%     96.20% # the distribution of provider component (Count)
system.cpu.branchPred.stream_tage.providerTableDist::8        25749      0.75%     96.95% # the distribution of provider component (Count)
system.cpu.branchPred.stream_tage.providerTableDist::9        25317      0.74%     97.69% # the distribution of provider component (Count)
system.cpu.branchPred.stream_tage.providerTableDist::10        19200      0.56%     98.25% # the distribution of provider component (Count)
system.cpu.branchPred.stream_tage.providerTableDist::11        10854      0.32%     98.56% # the distribution of provider component (Count)
system.cpu.branchPred.stream_tage.providerTableDist::12        16728      0.49%     99.05% # the distribution of provider component (Count)
system.cpu.branchPred.stream_tage.providerTableDist::13         7816      0.23%     99.28% # the distribution of provider component (Count)
system.cpu.branchPred.stream_tage.providerTableDist::14        11449      0.33%     99.61% # the distribution of provider component (Count)
system.cpu.branchPred.stream_tage.providerTableDist::15        13289      0.39%    100.00% # the distribution of provider component (Count)
system.cpu.branchPred.stream_tage.providerTableDist::16            0      0.00%    100.00% # the distribution of provider component (Count)
system.cpu.branchPred.stream_tage.providerTableDist::17            0      0.00%    100.00% # the distribution of provider component (Count)
system.cpu.branchPred.stream_tage.providerTableDist::18            0      0.00%    100.00% # the distribution of provider component (Count)
system.cpu.branchPred.stream_tage.providerTableDist::19            0      0.00%    100.00% # the distribution of provider component (Count)
system.cpu.branchPred.stream_tage.providerTableDist::20            0      0.00%    100.00% # the distribution of provider component (Count)
system.cpu.branchPred.stream_tage.providerTableDist::21            0      0.00%    100.00% # the distribution of provider component (Count)
system.cpu.branchPred.stream_tage.providerTableDist::overflows            0      0.00%    100.00% # the distribution of provider component (Count)
system.cpu.branchPred.stream_tage.providerTableDist::min_value            0                       # the distribution of provider component (Count)
system.cpu.branchPred.stream_tage.providerTableDist::max_value           15                       # the distribution of provider component (Count)
system.cpu.branchPred.stream_tage.providerTableDist::total      3433421                       # the distribution of provider component (Count)
system.cpu.commit.commitSquashedInsts          300051                       # The number of squashed insts skipped by commit (Count)
system.cpu.commit.commitNonSpecStalls              33                       # The number of times commit has been forced to stall to communicate backwards (Count)
system.cpu.commit.branchMispredicts              6354                       # The number of times a branch was mispredicted (Count)
system.cpu.commit.numCommittedDist::samples      9987764                       # Number of insts commited each cycle (Count)
system.cpu.commit.numCommittedDist::mean     1.001225                       # Number of insts commited each cycle (Count)
system.cpu.commit.numCommittedDist::stdev     2.422937                       # Number of insts commited each cycle (Count)
system.cpu.commit.numCommittedDist::underflows            0      0.00%      0.00% # Number of insts commited each cycle (Count)
system.cpu.commit.numCommittedDist::0         8137629     81.48%     81.48% # Number of insts commited each cycle (Count)
system.cpu.commit.numCommittedDist::1          275328      2.76%     84.23% # Number of insts commited each cycle (Count)
system.cpu.commit.numCommittedDist::2          166625      1.67%     85.90% # Number of insts commited each cycle (Count)
system.cpu.commit.numCommittedDist::3          176612      1.77%     87.67% # Number of insts commited each cycle (Count)
system.cpu.commit.numCommittedDist::4          123433      1.24%     88.91% # Number of insts commited each cycle (Count)
system.cpu.commit.numCommittedDist::5           94438      0.95%     89.85% # Number of insts commited each cycle (Count)
system.cpu.commit.numCommittedDist::6           55797      0.56%     90.41% # Number of insts commited each cycle (Count)
system.cpu.commit.numCommittedDist::7          102332      1.02%     91.43% # Number of insts commited each cycle (Count)
system.cpu.commit.numCommittedDist::8          855570      8.57%    100.00% # Number of insts commited each cycle (Count)
system.cpu.commit.numCommittedDist::overflows            0      0.00%    100.00% # Number of insts commited each cycle (Count)
system.cpu.commit.numCommittedDist::min_value            0                       # Number of insts commited each cycle (Count)
system.cpu.commit.numCommittedDist::max_value            8                       # Number of insts commited each cycle (Count)
system.cpu.commit.numCommittedDist::total      9987764                       # Number of insts commited each cycle (Count)
system.cpu.commit.instsCommitted             10000002                       # Number of instructions committed (Count)
system.cpu.commit.opsCommitted               10000002                       # Number of ops (including micro ops) committed (Count)
system.cpu.commit.memRefs                     4025017                       # Number of memory references committed (Count)
system.cpu.commit.loads                       2759614                       # Number of loads committed (Count)
system.cpu.commit.amos                              0                       # Number of atomic instructions committed (Count)
system.cpu.commit.membars                           0                       # Number of memory barriers committed (Count)
system.cpu.commit.branches                    2284706                       # Number of branches committed (Count)
system.cpu.commit.vectorInstructions                0                       # Number of committed Vector instructions. (Count)
system.cpu.commit.floating                         32                       # Number of committed floating point instructions. (Count)
system.cpu.commit.integer                     9719668                       # Number of committed integer instructions. (Count)
system.cpu.commit.functionCalls                269149                       # Number of function calls committed. (Count)
system.cpu.commit.committedInstType_0::No_OpClass           32      0.00%      0.00% # Class of committed instruction (Count)
system.cpu.commit.committedInstType_0::IntAlu      5974953     59.75%     59.75% # Class of committed instruction (Count)
system.cpu.commit.committedInstType_0::IntMult            0      0.00%     59.75% # Class of committed instruction (Count)
system.cpu.commit.committedInstType_0::IntDiv            0      0.00%     59.75% # Class of committed instruction (Count)
system.cpu.commit.committedInstType_0::FloatAdd            0      0.00%     59.75% # Class of committed instruction (Count)
system.cpu.commit.committedInstType_0::FloatCmp            0      0.00%     59.75% # Class of committed instruction (Count)
system.cpu.commit.committedInstType_0::FloatCvt            0      0.00%     59.75% # Class of committed instruction (Count)
system.cpu.commit.committedInstType_0::FloatMult            0      0.00%     59.75% # Class of committed instruction (Count)
system.cpu.commit.committedInstType_0::FloatMultAcc            0      0.00%     59.75% # Class of committed instruction (Count)
system.cpu.commit.committedInstType_0::FloatDiv            0      0.00%     59.75% # Class of committed instruction (Count)
system.cpu.commit.committedInstType_0::FloatMisc            0      0.00%     59.75% # Class of committed instruction (Count)
system.cpu.commit.committedInstType_0::FloatSqrt            0      0.00%     59.75% # Class of committed instruction (Count)
system.cpu.commit.committedInstType_0::SimdAdd            0      0.00%     59.75% # Class of committed instruction (Count)
system.cpu.commit.committedInstType_0::SimdAddAcc            0      0.00%     59.75% # Class of committed instruction (Count)
system.cpu.commit.committedInstType_0::SimdAlu            0      0.00%     59.75% # Class of committed instruction (Count)
system.cpu.commit.committedInstType_0::SimdCmp            0      0.00%     59.75% # Class of committed instruction (Count)
system.cpu.commit.committedInstType_0::SimdCvt            0      0.00%     59.75% # Class of committed instruction (Count)
system.cpu.commit.committedInstType_0::SimdMisc            0      0.00%     59.75% # Class of committed instruction (Count)
system.cpu.commit.committedInstType_0::SimdMult            0      0.00%     59.75% # Class of committed instruction (Count)
system.cpu.commit.committedInstType_0::SimdMultAcc            0      0.00%     59.75% # Class of committed instruction (Count)
system.cpu.commit.committedInstType_0::SimdShift            0      0.00%     59.75% # Class of committed instruction (Count)
system.cpu.commit.committedInstType_0::SimdShiftAcc            0      0.00%     59.75% # Class of committed instruction (Count)
system.cpu.commit.committedInstType_0::SimdDiv            0      0.00%     59.75% # Class of committed instruction (Count)
system.cpu.commit.committedInstType_0::SimdSqrt            0      0.00%     59.75% # Class of committed instruction (Count)
system.cpu.commit.committedInstType_0::SimdFloatAdd            0      0.00%     59.75% # Class of committed instruction (Count)
system.cpu.commit.committedInstType_0::SimdFloatAlu            0      0.00%     59.75% # Class of committed instruction (Count)
system.cpu.commit.committedInstType_0::SimdFloatCmp            0      0.00%     59.75% # Class of committed instruction (Count)
system.cpu.commit.committedInstType_0::SimdFloatCvt            0      0.00%     59.75% # Class of committed instruction (Count)
system.cpu.commit.committedInstType_0::SimdFloatDiv            0      0.00%     59.75% # Class of committed instruction (Count)
system.cpu.commit.committedInstType_0::SimdFloatMisc            0      0.00%     59.75% # Class of committed instruction (Count)
system.cpu.commit.committedInstType_0::SimdFloatMult            0      0.00%     59.75% # Class of committed instruction (Count)
system.cpu.commit.committedInstType_0::SimdFloatMultAcc            0      0.00%     59.75% # Class of committed instruction (Count)
system.cpu.commit.committedInstType_0::SimdFloatSqrt            0      0.00%     59.75% # Class of committed instruction (Count)
system.cpu.commit.committedInstType_0::SimdReduceAdd            0      0.00%     59.75% # Class of committed instruction (Count)
system.cpu.commit.committedInstType_0::SimdReduceAlu            0      0.00%     59.75% # Class of committed instruction (Count)
system.cpu.commit.committedInstType_0::SimdReduceCmp            0      0.00%     59.75% # Class of committed instruction (Count)
system.cpu.commit.committedInstType_0::SimdFloatReduceAdd            0      0.00%     59.75% # Class of committed instruction (Count)
system.cpu.commit.committedInstType_0::SimdFloatReduceCmp            0      0.00%     59.75% # Class of committed instruction (Count)
system.cpu.commit.committedInstType_0::SimdAes            0      0.00%     59.75% # Class of committed instruction (Count)
system.cpu.commit.committedInstType_0::SimdAesMix            0      0.00%     59.75% # Class of committed instruction (Count)
system.cpu.commit.committedInstType_0::SimdSha1Hash            0      0.00%     59.75% # Class of committed instruction (Count)
system.cpu.commit.committedInstType_0::SimdSha1Hash2            0      0.00%     59.75% # Class of committed instruction (Count)
system.cpu.commit.committedInstType_0::SimdSha256Hash            0      0.00%     59.75% # Class of committed instruction (Count)
system.cpu.commit.committedInstType_0::SimdSha256Hash2            0      0.00%     59.75% # Class of committed instruction (Count)
system.cpu.commit.committedInstType_0::SimdShaSigma2            0      0.00%     59.75% # Class of committed instruction (Count)
system.cpu.commit.committedInstType_0::SimdShaSigma3            0      0.00%     59.75% # Class of committed instruction (Count)
system.cpu.commit.committedInstType_0::SimdPredAlu            0      0.00%     59.75% # Class of committed instruction (Count)
system.cpu.commit.committedInstType_0::MemRead      2759582     27.60%     87.35% # Class of committed instruction (Count)
system.cpu.commit.committedInstType_0::MemWrite      1265403     12.65%    100.00% # Class of committed instruction (Count)
system.cpu.commit.committedInstType_0::FloatMemRead           32      0.00%    100.00% # Class of committed instruction (Count)
system.cpu.commit.committedInstType_0::FloatMemWrite            0      0.00%    100.00% # Class of committed instruction (Count)
system.cpu.commit.committedInstType_0::IprAccess            0      0.00%    100.00% # Class of committed instruction (Count)
system.cpu.commit.committedInstType_0::InstPrefetch            0      0.00%    100.00% # Class of committed instruction (Count)
system.cpu.commit.committedInstType_0::total     10000002                       # Class of committed instruction (Count)
system.cpu.commit.commitEligibleSamples        855570                       # number cycles where commit BW limit reached (Cycle)
system.cpu.dcache.demandHits::cpu.data        3358233                       # number of demand (read+write) hits (Count)
system.cpu.dcache.demandHits::total           3358233                       # number of demand (read+write) hits (Count)
system.cpu.dcache.overallHits::cpu.data       3358233                       # number of overall hits (Count)
system.cpu.dcache.overallHits::total          3358233                       # number of overall hits (Count)
system.cpu.dcache.demandMisses::cpu.data       155313                       # number of demand (read+write) misses (Count)
system.cpu.dcache.demandMisses::total          155313                       # number of demand (read+write) misses (Count)
system.cpu.dcache.overallMisses::cpu.data       155313                       # number of overall misses (Count)
system.cpu.dcache.overallMisses::total         155313                       # number of overall misses (Count)
system.cpu.dcache.demandMissLatency::cpu.data   9868692500                       # number of demand (read+write) miss ticks (Tick)
system.cpu.dcache.demandMissLatency::total   9868692500                       # number of demand (read+write) miss ticks (Tick)
system.cpu.dcache.overallMissLatency::cpu.data   9868692500                       # number of overall miss ticks (Tick)
system.cpu.dcache.overallMissLatency::total   9868692500                       # number of overall miss ticks (Tick)
system.cpu.dcache.demandAccesses::cpu.data      3513546                       # number of demand (read+write) accesses (Count)
system.cpu.dcache.demandAccesses::total       3513546                       # number of demand (read+write) accesses (Count)
system.cpu.dcache.overallAccesses::cpu.data      3513546                       # number of overall (read+write) accesses (Count)
system.cpu.dcache.overallAccesses::total      3513546                       # number of overall (read+write) accesses (Count)
system.cpu.dcache.demandMissRate::cpu.data     0.044204                       # miss rate for demand accesses (Ratio)
system.cpu.dcache.demandMissRate::total      0.044204                       # miss rate for demand accesses (Ratio)
system.cpu.dcache.overallMissRate::cpu.data     0.044204                       # miss rate for overall accesses (Ratio)
system.cpu.dcache.overallMissRate::total     0.044204                       # miss rate for overall accesses (Ratio)
system.cpu.dcache.demandAvgMissLatency::cpu.data 63540.672706                       # average overall miss latency in ticks ((Tick/Count))
system.cpu.dcache.demandAvgMissLatency::total 63540.672706                       # average overall miss latency in ticks ((Tick/Count))
system.cpu.dcache.overallAvgMissLatency::cpu.data 63540.672706                       # average overall miss latency ((Tick/Count))
system.cpu.dcache.overallAvgMissLatency::total 63540.672706                       # average overall miss latency ((Tick/Count))
system.cpu.dcache.blockedCycles::no_mshrs            0                       # number of cycles access was blocked (Cycle)
system.cpu.dcache.blockedCycles::no_targets            0                       # number of cycles access was blocked (Cycle)
system.cpu.dcache.blockedCauses::no_mshrs            0                       # number of times access was blocked (Count)
system.cpu.dcache.blockedCauses::no_targets            0                       # number of times access was blocked (Count)
system.cpu.dcache.avgBlocked::no_mshrs            nan                       # average number of cycles each access was blocked ((Cycle/Count))
system.cpu.dcache.avgBlocked::no_targets          nan                       # average number of cycles each access was blocked ((Cycle/Count))
system.cpu.dcache.writebacks::writebacks        16076                       # number of writebacks (Count)
system.cpu.dcache.writebacks::total             16076                       # number of writebacks (Count)
system.cpu.dcache.demandMshrHits::cpu.data        75276                       # number of demand (read+write) MSHR hits (Count)
system.cpu.dcache.demandMshrHits::total         75276                       # number of demand (read+write) MSHR hits (Count)
system.cpu.dcache.overallMshrHits::cpu.data        75276                       # number of overall MSHR hits (Count)
system.cpu.dcache.overallMshrHits::total        75276                       # number of overall MSHR hits (Count)
system.cpu.dcache.demandMshrMisses::cpu.data        80037                       # number of demand (read+write) MSHR misses (Count)
system.cpu.dcache.demandMshrMisses::total        80037                       # number of demand (read+write) MSHR misses (Count)
system.cpu.dcache.overallMshrMisses::cpu.data        80037                       # number of overall MSHR misses (Count)
system.cpu.dcache.overallMshrMisses::total        80037                       # number of overall MSHR misses (Count)
system.cpu.dcache.overallMshrUncacheable::cpu.data            2                       # number of overall MSHR uncacheable misses (Count)
system.cpu.dcache.overallMshrUncacheable::total            2                       # number of overall MSHR uncacheable misses (Count)
system.cpu.dcache.demandMshrMissLatency::cpu.data   4976725000                       # number of demand (read+write) MSHR miss ticks (Tick)
system.cpu.dcache.demandMshrMissLatency::total   4976725000                       # number of demand (read+write) MSHR miss ticks (Tick)
system.cpu.dcache.overallMshrMissLatency::cpu.data   4976725000                       # number of overall MSHR miss ticks (Tick)
system.cpu.dcache.overallMshrMissLatency::total   4976725000                       # number of overall MSHR miss ticks (Tick)
system.cpu.dcache.demandMshrMissRate::cpu.data     0.022780                       # mshr miss ratio for demand accesses (Ratio)
system.cpu.dcache.demandMshrMissRate::total     0.022780                       # mshr miss ratio for demand accesses (Ratio)
system.cpu.dcache.overallMshrMissRate::cpu.data     0.022780                       # mshr miss ratio for overall accesses (Ratio)
system.cpu.dcache.overallMshrMissRate::total     0.022780                       # mshr miss ratio for overall accesses (Ratio)
system.cpu.dcache.demandAvgMshrMissLatency::cpu.data 62180.304109                       # average overall mshr miss latency ((Tick/Count))
system.cpu.dcache.demandAvgMshrMissLatency::total 62180.304109                       # average overall mshr miss latency ((Tick/Count))
system.cpu.dcache.overallAvgMshrMissLatency::cpu.data 62180.304109                       # average overall mshr miss latency ((Tick/Count))
system.cpu.dcache.overallAvgMshrMissLatency::total 62180.304109                       # average overall mshr miss latency ((Tick/Count))
system.cpu.dcache.replacements                  77989                       # number of replacements (Count)
system.cpu.dcache.ReadReq.hits::cpu.data      2092932                       # number of ReadReq hits (Count)
system.cpu.dcache.ReadReq.hits::total         2092932                       # number of ReadReq hits (Count)
system.cpu.dcache.ReadReq.misses::cpu.data       155217                       # number of ReadReq misses (Count)
system.cpu.dcache.ReadReq.misses::total        155217                       # number of ReadReq misses (Count)
system.cpu.dcache.ReadReq.missLatency::cpu.data   9865996000                       # number of ReadReq miss ticks (Tick)
system.cpu.dcache.ReadReq.missLatency::total   9865996000                       # number of ReadReq miss ticks (Tick)
system.cpu.dcache.ReadReq.accesses::cpu.data      2248149                       # number of ReadReq accesses(hits+misses) (Count)
system.cpu.dcache.ReadReq.accesses::total      2248149                       # number of ReadReq accesses(hits+misses) (Count)
system.cpu.dcache.ReadReq.missRate::cpu.data     0.069042                       # miss rate for ReadReq accesses (Ratio)
system.cpu.dcache.ReadReq.missRate::total     0.069042                       # miss rate for ReadReq accesses (Ratio)
system.cpu.dcache.ReadReq.avgMissLatency::cpu.data 63562.599458                       # average ReadReq miss latency ((Tick/Count))
system.cpu.dcache.ReadReq.avgMissLatency::total 63562.599458                       # average ReadReq miss latency ((Tick/Count))
system.cpu.dcache.ReadReq.mshrHits::cpu.data        75198                       # number of ReadReq MSHR hits (Count)
system.cpu.dcache.ReadReq.mshrHits::total        75198                       # number of ReadReq MSHR hits (Count)
system.cpu.dcache.ReadReq.mshrMisses::cpu.data        80019                       # number of ReadReq MSHR misses (Count)
system.cpu.dcache.ReadReq.mshrMisses::total        80019                       # number of ReadReq MSHR misses (Count)
system.cpu.dcache.ReadReq.mshrMissLatency::cpu.data   4976108500                       # number of ReadReq MSHR miss ticks (Tick)
system.cpu.dcache.ReadReq.mshrMissLatency::total   4976108500                       # number of ReadReq MSHR miss ticks (Tick)
system.cpu.dcache.ReadReq.mshrMissRate::cpu.data     0.035593                       # mshr miss rate for ReadReq accesses (Ratio)
system.cpu.dcache.ReadReq.mshrMissRate::total     0.035593                       # mshr miss rate for ReadReq accesses (Ratio)
system.cpu.dcache.ReadReq.avgMshrMissLatency::cpu.data 62186.586936                       # average ReadReq mshr miss latency ((Tick/Count))
system.cpu.dcache.ReadReq.avgMshrMissLatency::total 62186.586936                       # average ReadReq mshr miss latency ((Tick/Count))
system.cpu.dcache.WriteReq.hits::cpu.data      1265301                       # number of WriteReq hits (Count)
system.cpu.dcache.WriteReq.hits::total        1265301                       # number of WriteReq hits (Count)
system.cpu.dcache.WriteReq.misses::cpu.data           96                       # number of WriteReq misses (Count)
system.cpu.dcache.WriteReq.misses::total           96                       # number of WriteReq misses (Count)
system.cpu.dcache.WriteReq.missLatency::cpu.data      2696500                       # number of WriteReq miss ticks (Tick)
system.cpu.dcache.WriteReq.missLatency::total      2696500                       # number of WriteReq miss ticks (Tick)
system.cpu.dcache.WriteReq.accesses::cpu.data      1265397                       # number of WriteReq accesses(hits+misses) (Count)
system.cpu.dcache.WriteReq.accesses::total      1265397                       # number of WriteReq accesses(hits+misses) (Count)
system.cpu.dcache.WriteReq.missRate::cpu.data     0.000076                       # miss rate for WriteReq accesses (Ratio)
system.cpu.dcache.WriteReq.missRate::total     0.000076                       # miss rate for WriteReq accesses (Ratio)
system.cpu.dcache.WriteReq.avgMissLatency::cpu.data 28088.541667                       # average WriteReq miss latency ((Tick/Count))
system.cpu.dcache.WriteReq.avgMissLatency::total 28088.541667                       # average WriteReq miss latency ((Tick/Count))
system.cpu.dcache.WriteReq.mshrHits::cpu.data           78                       # number of WriteReq MSHR hits (Count)
system.cpu.dcache.WriteReq.mshrHits::total           78                       # number of WriteReq MSHR hits (Count)
system.cpu.dcache.WriteReq.mshrMisses::cpu.data           18                       # number of WriteReq MSHR misses (Count)
system.cpu.dcache.WriteReq.mshrMisses::total           18                       # number of WriteReq MSHR misses (Count)
system.cpu.dcache.WriteReq.mshrUncacheable::cpu.data            2                       # number of WriteReq MSHR uncacheable (Count)
system.cpu.dcache.WriteReq.mshrUncacheable::total            2                       # number of WriteReq MSHR uncacheable (Count)
system.cpu.dcache.WriteReq.mshrMissLatency::cpu.data       616500                       # number of WriteReq MSHR miss ticks (Tick)
system.cpu.dcache.WriteReq.mshrMissLatency::total       616500                       # number of WriteReq MSHR miss ticks (Tick)
system.cpu.dcache.WriteReq.mshrMissRate::cpu.data     0.000014                       # mshr miss rate for WriteReq accesses (Ratio)
system.cpu.dcache.WriteReq.mshrMissRate::total     0.000014                       # mshr miss rate for WriteReq accesses (Ratio)
system.cpu.dcache.WriteReq.avgMshrMissLatency::cpu.data        34250                       # average WriteReq mshr miss latency ((Tick/Count))
system.cpu.dcache.WriteReq.avgMshrMissLatency::total        34250                       # average WriteReq mshr miss latency ((Tick/Count))
system.cpu.dcache.power_state.pwrStateResidencyTicks::UNDEFINED   5018946000                       # Cumulative time (in ticks) in various power states (Tick)
system.cpu.dcache.tags.tagsInUse          2010.207622                       # Average ticks per tags in use ((Tick/Count))
system.cpu.dcache.tags.totalRefs               846361                       # Total number of references to valid blocks. (Count)
system.cpu.dcache.tags.sampledRefs              77989                       # Sample count of references to valid blocks. (Count)
system.cpu.dcache.tags.avgRefs              10.852313                       # Average number of references to valid blocks. ((Count/Count))
system.cpu.dcache.tags.warmupTick              153500                       # The tick when the warmup percentage was hit. (Tick)
system.cpu.dcache.tags.occupancies::cpu.data  2010.207622                       # Average occupied blocks per tick, per requestor ((Count/Tick))
system.cpu.dcache.tags.avgOccs::cpu.data     0.981547                       # Average percentage of cache occupancy ((Ratio/Tick))
system.cpu.dcache.tags.avgOccs::total        0.981547                       # Average percentage of cache occupancy ((Ratio/Tick))
system.cpu.dcache.tags.occupanciesTaskId::1024         2048                       # Occupied blocks per task id (Count)
system.cpu.dcache.tags.ageTaskId_1024::0          144                       # Occupied blocks per task id, per block age (Count)
system.cpu.dcache.tags.ageTaskId_1024::1         1282                       # Occupied blocks per task id, per block age (Count)
system.cpu.dcache.tags.ageTaskId_1024::2          584                       # Occupied blocks per task id, per block age (Count)
system.cpu.dcache.tags.ageTaskId_1024::3           38                       # Occupied blocks per task id, per block age (Count)
system.cpu.dcache.tags.ratioOccsTaskId::1024            1                       # Ratio of occupied blocks and all blocks, per task id (Ratio)
system.cpu.dcache.tags.tagAccesses           28188405                       # Number of tag accesses (Count)
system.cpu.dcache.tags.dataAccesses          28188405                       # Number of data accesses (Count)
system.cpu.dcache.tags.power_state.pwrStateResidencyTicks::UNDEFINED   5018946000                       # Cumulative time (in ticks) in various power states (Tick)
system.cpu.decode.idleCycles                    76901                       # Number of cycles decode is idle (Cycle)
system.cpu.decode.blockedCycles               7844927                       # Number of cycles decode is blocked (Cycle)
system.cpu.decode.runCycles                   2019874                       # Number of cycles decode is running (Cycle)
system.cpu.decode.unblockCycles                 83292                       # Number of cycles decode is unblocking (Cycle)
system.cpu.decode.squashCycles                   6482                       # Number of cycles decode is squashing (Cycle)
system.cpu.decode.branchResolved              1165594                       # Number of times decode resolved a branch (Count)
system.cpu.decode.branchMispred                   303                       # Number of times decode detected a branch misprediction (Count)
system.cpu.decode.decodedInsts               10370625                       # Number of instructions handled by decode (Count)
system.cpu.decode.squashedInsts                  1421                       # Number of squashed instructions handled by decode (Count)
system.cpu.dtb_walker_cache.demandHits::cpu.mmu.dtb.walker       153357                       # number of demand (read+write) hits (Count)
system.cpu.dtb_walker_cache.demandHits::total       153357                       # number of demand (read+write) hits (Count)
system.cpu.dtb_walker_cache.overallHits::cpu.mmu.dtb.walker       153357                       # number of overall hits (Count)
system.cpu.dtb_walker_cache.overallHits::total       153357                       # number of overall hits (Count)
system.cpu.dtb_walker_cache.demandMisses::cpu.mmu.dtb.walker        26554                       # number of demand (read+write) misses (Count)
system.cpu.dtb_walker_cache.demandMisses::total        26554                       # number of demand (read+write) misses (Count)
system.cpu.dtb_walker_cache.overallMisses::cpu.mmu.dtb.walker        26554                       # number of overall misses (Count)
system.cpu.dtb_walker_cache.overallMisses::total        26554                       # number of overall misses (Count)
system.cpu.dtb_walker_cache.demandMissLatency::cpu.mmu.dtb.walker   1859377000                       # number of demand (read+write) miss ticks (Tick)
system.cpu.dtb_walker_cache.demandMissLatency::total   1859377000                       # number of demand (read+write) miss ticks (Tick)
system.cpu.dtb_walker_cache.overallMissLatency::cpu.mmu.dtb.walker   1859377000                       # number of overall miss ticks (Tick)
system.cpu.dtb_walker_cache.overallMissLatency::total   1859377000                       # number of overall miss ticks (Tick)
system.cpu.dtb_walker_cache.demandAccesses::cpu.mmu.dtb.walker       179911                       # number of demand (read+write) accesses (Count)
system.cpu.dtb_walker_cache.demandAccesses::total       179911                       # number of demand (read+write) accesses (Count)
system.cpu.dtb_walker_cache.overallAccesses::cpu.mmu.dtb.walker       179911                       # number of overall (read+write) accesses (Count)
system.cpu.dtb_walker_cache.overallAccesses::total       179911                       # number of overall (read+write) accesses (Count)
system.cpu.dtb_walker_cache.demandMissRate::cpu.mmu.dtb.walker     0.147595                       # miss rate for demand accesses (Ratio)
system.cpu.dtb_walker_cache.demandMissRate::total     0.147595                       # miss rate for demand accesses (Ratio)
system.cpu.dtb_walker_cache.overallMissRate::cpu.mmu.dtb.walker     0.147595                       # miss rate for overall accesses (Ratio)
system.cpu.dtb_walker_cache.overallMissRate::total     0.147595                       # miss rate for overall accesses (Ratio)
system.cpu.dtb_walker_cache.demandAvgMissLatency::cpu.mmu.dtb.walker 70022.482489                       # average overall miss latency in ticks ((Tick/Count))
system.cpu.dtb_walker_cache.demandAvgMissLatency::total 70022.482489                       # average overall miss latency in ticks ((Tick/Count))
system.cpu.dtb_walker_cache.overallAvgMissLatency::cpu.mmu.dtb.walker 70022.482489                       # average overall miss latency ((Tick/Count))
system.cpu.dtb_walker_cache.overallAvgMissLatency::total 70022.482489                       # average overall miss latency ((Tick/Count))
system.cpu.dtb_walker_cache.blockedCycles::no_mshrs            0                       # number of cycles access was blocked (Cycle)
system.cpu.dtb_walker_cache.blockedCycles::no_targets            0                       # number of cycles access was blocked (Cycle)
system.cpu.dtb_walker_cache.blockedCauses::no_mshrs            0                       # number of times access was blocked (Count)
system.cpu.dtb_walker_cache.blockedCauses::no_targets            0                       # number of times access was blocked (Count)
system.cpu.dtb_walker_cache.avgBlocked::no_mshrs          nan                       # average number of cycles each access was blocked ((Cycle/Count))
system.cpu.dtb_walker_cache.avgBlocked::no_targets          nan                       # average number of cycles each access was blocked ((Cycle/Count))
system.cpu.dtb_walker_cache.demandMshrMisses::cpu.mmu.dtb.walker        26554                       # number of demand (read+write) MSHR misses (Count)
system.cpu.dtb_walker_cache.demandMshrMisses::total        26554                       # number of demand (read+write) MSHR misses (Count)
system.cpu.dtb_walker_cache.overallMshrMisses::cpu.mmu.dtb.walker        26554                       # number of overall MSHR misses (Count)
system.cpu.dtb_walker_cache.overallMshrMisses::total        26554                       # number of overall MSHR misses (Count)
system.cpu.dtb_walker_cache.demandMshrMissLatency::cpu.mmu.dtb.walker   1832823000                       # number of demand (read+write) MSHR miss ticks (Tick)
system.cpu.dtb_walker_cache.demandMshrMissLatency::total   1832823000                       # number of demand (read+write) MSHR miss ticks (Tick)
system.cpu.dtb_walker_cache.overallMshrMissLatency::cpu.mmu.dtb.walker   1832823000                       # number of overall MSHR miss ticks (Tick)
system.cpu.dtb_walker_cache.overallMshrMissLatency::total   1832823000                       # number of overall MSHR miss ticks (Tick)
system.cpu.dtb_walker_cache.demandMshrMissRate::cpu.mmu.dtb.walker     0.147595                       # mshr miss ratio for demand accesses (Ratio)
system.cpu.dtb_walker_cache.demandMshrMissRate::total     0.147595                       # mshr miss ratio for demand accesses (Ratio)
system.cpu.dtb_walker_cache.overallMshrMissRate::cpu.mmu.dtb.walker     0.147595                       # mshr miss ratio for overall accesses (Ratio)
system.cpu.dtb_walker_cache.overallMshrMissRate::total     0.147595                       # mshr miss ratio for overall accesses (Ratio)
system.cpu.dtb_walker_cache.demandAvgMshrMissLatency::cpu.mmu.dtb.walker 69022.482489                       # average overall mshr miss latency ((Tick/Count))
system.cpu.dtb_walker_cache.demandAvgMshrMissLatency::total 69022.482489                       # average overall mshr miss latency ((Tick/Count))
system.cpu.dtb_walker_cache.overallAvgMshrMissLatency::cpu.mmu.dtb.walker 69022.482489                       # average overall mshr miss latency ((Tick/Count))
system.cpu.dtb_walker_cache.overallAvgMshrMissLatency::total 69022.482489                       # average overall mshr miss latency ((Tick/Count))
system.cpu.dtb_walker_cache.replacements        26538                       # number of replacements (Count)
system.cpu.dtb_walker_cache.ReadReq.hits::cpu.mmu.dtb.walker       153357                       # number of ReadReq hits (Count)
system.cpu.dtb_walker_cache.ReadReq.hits::total       153357                       # number of ReadReq hits (Count)
system.cpu.dtb_walker_cache.ReadReq.misses::cpu.mmu.dtb.walker        26554                       # number of ReadReq misses (Count)
system.cpu.dtb_walker_cache.ReadReq.misses::total        26554                       # number of ReadReq misses (Count)
system.cpu.dtb_walker_cache.ReadReq.missLatency::cpu.mmu.dtb.walker   1859377000                       # number of ReadReq miss ticks (Tick)
system.cpu.dtb_walker_cache.ReadReq.missLatency::total   1859377000                       # number of ReadReq miss ticks (Tick)
system.cpu.dtb_walker_cache.ReadReq.accesses::cpu.mmu.dtb.walker       179911                       # number of ReadReq accesses(hits+misses) (Count)
system.cpu.dtb_walker_cache.ReadReq.accesses::total       179911                       # number of ReadReq accesses(hits+misses) (Count)
system.cpu.dtb_walker_cache.ReadReq.missRate::cpu.mmu.dtb.walker     0.147595                       # miss rate for ReadReq accesses (Ratio)
system.cpu.dtb_walker_cache.ReadReq.missRate::total     0.147595                       # miss rate for ReadReq accesses (Ratio)
system.cpu.dtb_walker_cache.ReadReq.avgMissLatency::cpu.mmu.dtb.walker 70022.482489                       # average ReadReq miss latency ((Tick/Count))
system.cpu.dtb_walker_cache.ReadReq.avgMissLatency::total 70022.482489                       # average ReadReq miss latency ((Tick/Count))
system.cpu.dtb_walker_cache.ReadReq.mshrMisses::cpu.mmu.dtb.walker        26554                       # number of ReadReq MSHR misses (Count)
system.cpu.dtb_walker_cache.ReadReq.mshrMisses::total        26554                       # number of ReadReq MSHR misses (Count)
system.cpu.dtb_walker_cache.ReadReq.mshrMissLatency::cpu.mmu.dtb.walker   1832823000                       # number of ReadReq MSHR miss ticks (Tick)
system.cpu.dtb_walker_cache.ReadReq.mshrMissLatency::total   1832823000                       # number of ReadReq MSHR miss ticks (Tick)
system.cpu.dtb_walker_cache.ReadReq.mshrMissRate::cpu.mmu.dtb.walker     0.147595                       # mshr miss rate for ReadReq accesses (Ratio)
system.cpu.dtb_walker_cache.ReadReq.mshrMissRate::total     0.147595                       # mshr miss rate for ReadReq accesses (Ratio)
system.cpu.dtb_walker_cache.ReadReq.avgMshrMissLatency::cpu.mmu.dtb.walker 69022.482489                       # average ReadReq mshr miss latency ((Tick/Count))
system.cpu.dtb_walker_cache.ReadReq.avgMshrMissLatency::total 69022.482489                       # average ReadReq mshr miss latency ((Tick/Count))
system.cpu.dtb_walker_cache.power_state.pwrStateResidencyTicks::UNDEFINED   5018946000                       # Cumulative time (in ticks) in various power states (Tick)
system.cpu.dtb_walker_cache.tags.tagsInUse    15.991377                       # Average ticks per tags in use ((Tick/Count))
system.cpu.dtb_walker_cache.tags.totalRefs       179633                       # Total number of references to valid blocks. (Count)
system.cpu.dtb_walker_cache.tags.sampledRefs        26538                       # Sample count of references to valid blocks. (Count)
system.cpu.dtb_walker_cache.tags.avgRefs     6.768897                       # Average number of references to valid blocks. ((Count/Count))
system.cpu.dtb_walker_cache.tags.warmupTick      1417500                       # The tick when the warmup percentage was hit. (Tick)
system.cpu.dtb_walker_cache.tags.occupancies::cpu.mmu.dtb.walker    15.991377                       # Average occupied blocks per tick, per requestor ((Count/Tick))
system.cpu.dtb_walker_cache.tags.avgOccs::cpu.mmu.dtb.walker     0.999461                       # Average percentage of cache occupancy ((Ratio/Tick))
system.cpu.dtb_walker_cache.tags.avgOccs::total     0.999461                       # Average percentage of cache occupancy ((Ratio/Tick))
system.cpu.dtb_walker_cache.tags.occupanciesTaskId::1024           16                       # Occupied blocks per task id (Count)
system.cpu.dtb_walker_cache.tags.ageTaskId_1024::0           14                       # Occupied blocks per task id, per block age (Count)
system.cpu.dtb_walker_cache.tags.ageTaskId_1024::1            2                       # Occupied blocks per task id, per block age (Count)
system.cpu.dtb_walker_cache.tags.ratioOccsTaskId::1024            1                       # Ratio of occupied blocks and all blocks, per task id (Ratio)
system.cpu.dtb_walker_cache.tags.tagAccesses       386376                       # Number of tag accesses (Count)
system.cpu.dtb_walker_cache.tags.dataAccesses       386376                       # Number of data accesses (Count)
system.cpu.dtb_walker_cache.tags.power_state.pwrStateResidencyTicks::UNDEFINED   5018946000                       # Cumulative time (in ticks) in various power states (Tick)
system.cpu.fetch.icacheStallCycles               5455                       # Number of cycles fetch is stalled on an Icache miss (Cycle)
system.cpu.fetch.insts                       10515082                       # Number of instructions fetch has processed (Count)
system.cpu.fetch.branches                     1502827                       # Number of branches that fetch encountered (Count)
system.cpu.fetch.predictedBranches            1502827                       # Number of branches that fetch has predicted taken (Count)
system.cpu.fetch.cycles                      10016288                       # Number of cycles fetch has run and was not squashing or blocked (Cycle)
system.cpu.fetch.squashCycles                   13546                       # Number of cycles fetch has spent squashing (Cycle)
system.cpu.fetch.tlbCycles                       1275                       # Number of cycles fetch has spent waiting for tlb (Cycle)
system.cpu.fetch.pendingTrapStallCycles          1170                       # Number of stall cycles due to pending traps (Cycle)
system.cpu.fetch.icacheWaitRetryStallCycles          515                       # Number of stall cycles due to full MSHR (Cycle)
system.cpu.fetch.cacheLines                   1672737                       # Number of cache lines fetched (Count)
system.cpu.fetch.icacheSquashes                    90                       # Number of outstanding Icache misses that were squashed (Count)
system.cpu.fetch.tlbSquashes                        2                       # Number of outstanding ITLB misses that were squashed (Count)
system.cpu.fetch.nisnDist::samples           10031476                       # Number of instructions fetched each cycle (Total) (Count)
system.cpu.fetch.nisnDist::mean              1.048209                       # Number of instructions fetched each cycle (Total) (Count)
system.cpu.fetch.nisnDist::stdev             2.237577                       # Number of instructions fetched each cycle (Total) (Count)
system.cpu.fetch.nisnDist::underflows               0      0.00%      0.00% # Number of instructions fetched each cycle (Total) (Count)
system.cpu.fetch.nisnDist::0                  7672424     76.48%     76.48% # Number of instructions fetched each cycle (Total) (Count)
system.cpu.fetch.nisnDist::1                   292829      2.92%     79.40% # Number of instructions fetched each cycle (Total) (Count)
system.cpu.fetch.nisnDist::2                   460396      4.59%     83.99% # Number of instructions fetched each cycle (Total) (Count)
system.cpu.fetch.nisnDist::3                   171125      1.71%     85.70% # Number of instructions fetched each cycle (Total) (Count)
system.cpu.fetch.nisnDist::4                   321767      3.21%     88.91% # Number of instructions fetched each cycle (Total) (Count)
system.cpu.fetch.nisnDist::5                   302148      3.01%     91.92% # Number of instructions fetched each cycle (Total) (Count)
system.cpu.fetch.nisnDist::6                   210256      2.10%     94.01% # Number of instructions fetched each cycle (Total) (Count)
system.cpu.fetch.nisnDist::7                    75506      0.75%     94.77% # Number of instructions fetched each cycle (Total) (Count)
system.cpu.fetch.nisnDist::8                   525025      5.23%    100.00% # Number of instructions fetched each cycle (Total) (Count)
system.cpu.fetch.nisnDist::overflows                0      0.00%    100.00% # Number of instructions fetched each cycle (Total) (Count)
system.cpu.fetch.nisnDist::min_value                0                       # Number of instructions fetched each cycle (Total) (Count)
system.cpu.fetch.nisnDist::max_value                8                       # Number of instructions fetched each cycle (Total) (Count)
system.cpu.fetch.nisnDist::total             10031476                       # Number of instructions fetched each cycle (Total) (Count)
system.cpu.fetch.branchRate                  0.149715                       # Number of branch fetches per cycle (Ratio)
system.cpu.fetch.rate                        1.047539                       # Number of inst fetches per cycle ((Count/Cycle))
system.cpu.icache.demandHits::cpu.inst        1672568                       # number of demand (read+write) hits (Count)
system.cpu.icache.demandHits::total           1672568                       # number of demand (read+write) hits (Count)
system.cpu.icache.overallHits::cpu.inst       1672568                       # number of overall hits (Count)
system.cpu.icache.overallHits::total          1672568                       # number of overall hits (Count)
system.cpu.icache.demandMisses::cpu.inst          169                       # number of demand (read+write) misses (Count)
system.cpu.icache.demandMisses::total             169                       # number of demand (read+write) misses (Count)
system.cpu.icache.overallMisses::cpu.inst          169                       # number of overall misses (Count)
system.cpu.icache.overallMisses::total            169                       # number of overall misses (Count)
system.cpu.icache.demandMissLatency::cpu.inst      9743998                       # number of demand (read+write) miss ticks (Tick)
system.cpu.icache.demandMissLatency::total      9743998                       # number of demand (read+write) miss ticks (Tick)
system.cpu.icache.overallMissLatency::cpu.inst      9743998                       # number of overall miss ticks (Tick)
system.cpu.icache.overallMissLatency::total      9743998                       # number of overall miss ticks (Tick)
system.cpu.icache.demandAccesses::cpu.inst      1672737                       # number of demand (read+write) accesses (Count)
system.cpu.icache.demandAccesses::total       1672737                       # number of demand (read+write) accesses (Count)
system.cpu.icache.overallAccesses::cpu.inst      1672737                       # number of overall (read+write) accesses (Count)
system.cpu.icache.overallAccesses::total      1672737                       # number of overall (read+write) accesses (Count)
system.cpu.icache.demandMissRate::cpu.inst     0.000101                       # miss rate for demand accesses (Ratio)
system.cpu.icache.demandMissRate::total      0.000101                       # miss rate for demand accesses (Ratio)
system.cpu.icache.overallMissRate::cpu.inst     0.000101                       # miss rate for overall accesses (Ratio)
system.cpu.icache.overallMissRate::total     0.000101                       # miss rate for overall accesses (Ratio)
system.cpu.icache.demandAvgMissLatency::cpu.inst 57656.792899                       # average overall miss latency in ticks ((Tick/Count))
system.cpu.icache.demandAvgMissLatency::total 57656.792899                       # average overall miss latency in ticks ((Tick/Count))
system.cpu.icache.overallAvgMissLatency::cpu.inst 57656.792899                       # average overall miss latency ((Tick/Count))
system.cpu.icache.overallAvgMissLatency::total 57656.792899                       # average overall miss latency ((Tick/Count))
system.cpu.icache.blockedCycles::no_mshrs         2537                       # number of cycles access was blocked (Cycle)
system.cpu.icache.blockedCycles::no_targets            0                       # number of cycles access was blocked (Cycle)
system.cpu.icache.blockedCauses::no_mshrs           30                       # number of times access was blocked (Count)
system.cpu.icache.blockedCauses::no_targets            0                       # number of times access was blocked (Count)
system.cpu.icache.avgBlocked::no_mshrs      84.566667                       # average number of cycles each access was blocked ((Cycle/Count))
system.cpu.icache.avgBlocked::no_targets          nan                       # average number of cycles each access was blocked ((Cycle/Count))
system.cpu.icache.demandMshrHits::cpu.inst           31                       # number of demand (read+write) MSHR hits (Count)
system.cpu.icache.demandMshrHits::total            31                       # number of demand (read+write) MSHR hits (Count)
system.cpu.icache.overallMshrHits::cpu.inst           31                       # number of overall MSHR hits (Count)
system.cpu.icache.overallMshrHits::total           31                       # number of overall MSHR hits (Count)
system.cpu.icache.demandMshrMisses::cpu.inst          138                       # number of demand (read+write) MSHR misses (Count)
system.cpu.icache.demandMshrMisses::total          138                       # number of demand (read+write) MSHR misses (Count)
system.cpu.icache.overallMshrMisses::cpu.inst          138                       # number of overall MSHR misses (Count)
system.cpu.icache.overallMshrMisses::total          138                       # number of overall MSHR misses (Count)
system.cpu.icache.demandMshrMissLatency::cpu.inst      8458998                       # number of demand (read+write) MSHR miss ticks (Tick)
[...]
system.mem_ctrls.dram.totQLat              1490008588                       # Total ticks spent queuing (Tick)
system.mem_ctrls.dram.totBusLat             326289432                       # Total ticks spent in databus transfers (Tick)
system.mem_ctrls.dram.totMemAccLat         3202930180                       # Total ticks spent from burst creation until serviced by the DRAM (Tick)
system.mem_ctrls.dram.avgQLat                15215.66                       # Average queueing delay per DRAM burst ((Tick/Count))
system.mem_ctrls.dram.avgBusLat               3332.00                       # Average bus latency per DRAM burst ((Tick/Count))
system.mem_ctrls.dram.avgMemAccLat           32707.66                       # Average memory access latency per DRAM burst ((Tick/Count))
system.mem_ctrls.dram.readRowHits               60949                       # Number of row buffer hits during reads (Count)
system.mem_ctrls.dram.writeRowHits                 21                       # Number of row buffer hits during writes (Count)
system.mem_ctrls.dram.readRowHitRate            62.24                       # Row buffer hit rate for reads (Ratio)
system.mem_ctrls.dram.writeRowHitRate           13.82                       # Row buffer hit rate for writes (Ratio)
system.mem_ctrls.dram.bytesPerActivate::samples        37100                       # Bytes accessed per row activation (Byte)
system.mem_ctrls.dram.bytesPerActivate::mean   169.104906                       # Bytes accessed per row activation (Byte)
system.mem_ctrls.dram.bytesPerActivate::gmean   117.401068                       # Bytes accessed per row activation (Byte)
system.mem_ctrls.dram.bytesPerActivate::stdev   189.460843                       # Bytes accessed per row activation (Byte)
system.mem_ctrls.dram.bytesPerActivate::0-127        19266     51.93%     51.93% # Bytes accessed per row activation (Byte)
system.mem_ctrls.dram.bytesPerActivate::128-255        10637     28.67%     80.60% # Bytes accessed per row activation (Byte)
system.mem_ctrls.dram.bytesPerActivate::256-383         3035      8.18%     88.78% # Bytes accessed per row activation (Byte)
system.mem_ctrls.dram.bytesPerActivate::384-511         1443      3.89%     92.67% # Bytes accessed per row activation (Byte)
system.mem_ctrls.dram.bytesPerActivate::512-639          861      2.32%     94.99% # Bytes accessed per row activation (Byte)
system.mem_ctrls.dram.bytesPerActivate::640-767          645      1.74%     96.73% # Bytes accessed per row activation (Byte)
system.mem_ctrls.dram.bytesPerActivate::768-895          426      1.15%     97.88% # Bytes accessed per row activation (Byte)
system.mem_ctrls.dram.bytesPerActivate::896-1023          276      0.74%     98.62% # Bytes accessed per row activation (Byte)
system.mem_ctrls.dram.bytesPerActivate::1024-1151          511      1.38%    100.00% # Bytes accessed per row activation (Byte)
system.mem_ctrls.dram.bytesPerActivate::total        37100                       # Bytes accessed per row activation (Byte)
system.mem_ctrls.dram.bytesRead               6267264                       # Total bytes read (Byte)
system.mem_ctrls.dram.bytesWritten               9728                       # Total bytes written (Byte)
system.mem_ctrls.dram.avgRdBW             1204.633579                       # Average DRAM read bandwidth in MiBytes/s ((Byte/Second))
system.mem_ctrls.dram.avgWrBW                1.869823                       # Average DRAM write bandwidth in MiBytes/s ((Byte/Second))
system.mem_ctrls.dram.peakBW                 19207.00                       # Theoretical peak bandwidth in MiByte/s ((Byte/Second))
system.mem_ctrls.dram.busUtil                    6.28                       # Data bus utilization in percentage (Ratio)
system.mem_ctrls.dram.busUtilRead                6.27                       # Data bus utilization in percentage for reads (Ratio)
system.mem_ctrls.dram.busUtilWrite               0.01                       # Data bus utilization in percentage for writes (Ratio)
system.mem_ctrls.dram.pageHitRate               62.16                       # Row buffer hit rate, read and write combined (Ratio)
system.mem_ctrls.dram.power_state.pwrStateResidencyTicks::UNDEFINED   5202631000                       # Cumulative time (in ticks) in various power states (Tick)
system.mem_ctrls.dram.rank0.actEnergy    55367204.256000                       # Energy for activate commands per rank (pJ) (Joule)
system.mem_ctrls.dram.rank0.preEnergy    73601695.540800                       # Energy for precharge commands per rank (pJ) (Joule)
system.mem_ctrls.dram.rank0.readEnergy   191534635.488000                       # Energy for read commands per rank (pJ) (Joule)
system.mem_ctrls.dram.rank0.writeEnergy  300679.680000                       # Energy for write commands per rank (pJ) (Joule)
system.mem_ctrls.dram.rank0.refreshEnergy 925432254.969605                       # Energy for refresh commands per rank (pJ) (Joule)
system.mem_ctrls.dram.rank0.actBackEnergy 4362643072.468795                       # Energy for active background per rank (pJ) (Joule)
system.mem_ctrls.dram.rank0.preBackEnergy 44189932.953600                       # Energy for precharge background per rank (pJ) (Joule)
system.mem_ctrls.dram.rank0.actPowerDownEnergy            0                       # Energy for active power-down per rank (pJ) (Joule)
system.mem_ctrls.dram.rank0.prePowerDownEnergy            0                       # Energy for precharge power-down per rank (pJ) (Joule)
system.mem_ctrls.dram.rank0.selfRefreshEnergy            0                       # Energy for self refresh per rank (pJ) (Joule)
system.mem_ctrls.dram.rank0.totalEnergy  5653069475.356800                       # Total energy per rank (pJ) (Joule)
system.mem_ctrls.dram.rank0.averagePower  1086.578978                       # Core power per rank (mW) (Watt)
system.mem_ctrls.dram.rank0.totalIdleTime            0                       # Total Idle time Per DRAM Rank (Tick)
system.mem_ctrls.dram.rank0.pwrStateTime::IDLE     48545740                       # Time in different power states (Tick)
system.mem_ctrls.dram.rank0.pwrStateTime::REF    233800000                       # Time in different power states (Tick)
system.mem_ctrls.dram.rank0.pwrStateTime::SREF            0                       # Time in different power states (Tick)
system.mem_ctrls.dram.rank0.pwrStateTime::PRE_PDN            0                       # Time in different power states (Tick)
system.mem_ctrls.dram.rank0.pwrStateTime::ACT   4920285260                       # Time in different power states (Tick)
system.mem_ctrls.dram.rank0.pwrStateTime::ACT_PDN            0                       # Time in different power states (Tick)
system.mem_ctrls.dram.rank1.actEnergy    60363444.960000                       # Energy for activate commands per rank (pJ) (Joule)
system.mem_ctrls.dram.rank1.preEnergy    80227548.139200                       # Energy for precharge commands per rank (pJ) (Joule)
system.mem_ctrls.dram.rank1.readEnergy   220373143.468800                       # Energy for read commands per rank (pJ) (Joule)
system.mem_ctrls.dram.rank1.writeEnergy  270611.712000                       # Energy for write commands per rank (pJ) (Joule)
system.mem_ctrls.dram.rank1.refreshEnergy 925432254.969605                       # Energy for refresh commands per rank (pJ) (Joule)
system.mem_ctrls.dram.rank1.actBackEnergy 4363047886.478395                       # Energy for active background per rank (pJ) (Joule)
system.mem_ctrls.dram.rank1.preBackEnergy 43878889.420800                       # Energy for precharge background per rank (pJ) (Joule)
system.mem_ctrls.dram.rank1.actPowerDownEnergy            0                       # Energy for active power-down per rank (pJ) (Joule)
system.mem_ctrls.dram.rank1.prePowerDownEnergy            0                       # Energy for precharge power-down per rank (pJ) (Joule)
system.mem_ctrls.dram.rank1.selfRefreshEnergy            0                       # Energy for self refresh per rank (pJ) (Joule)
system.mem_ctrls.dram.rank1.totalEnergy  5693593779.148804                       # Total energy per rank (pJ) (Joule)
system.mem_ctrls.dram.rank1.averagePower  1094.368172                       # Core power per rank (mW) (Watt)
system.mem_ctrls.dram.rank1.totalIdleTime            0                       # Total Idle time Per DRAM Rank (Tick)
system.mem_ctrls.dram.rank1.pwrStateTime::IDLE     48121016                       # Time in different power states (Tick)
system.mem_ctrls.dram.rank1.pwrStateTime::REF    233800000                       # Time in different power states (Tick)
system.mem_ctrls.dram.rank1.pwrStateTime::SREF            0                       # Time in different power states (Tick)
system.mem_ctrls.dram.rank1.pwrStateTime::PRE_PDN            0                       # Time in different power states (Tick)
system.mem_ctrls.dram.rank1.pwrStateTime::ACT   4920709984                       # Time in different power states (Tick)
system.mem_ctrls.dram.rank1.pwrStateTime::ACT_PDN            0                       # Time in different power states (Tick)
system.mem_ctrls.power_state.pwrStateResidencyTicks::UNDEFINED   5202631000                       # Cumulative time (in ticks) in various power states (Tick)
system.membus.transDist::ReadResp               98060                       # Transaction distribution (Count)
system.membus.transDist::WritebackDirty           182                       # Transaction distribution (Count)
system.membus.transDist::CleanEvict             92093                       # Transaction distribution (Count)
system.membus.transDist::ReadExReq                  2                       # Transaction distribution (Count)
system.membus.transDist::ReadExResp                 2                       # Transaction distribution (Count)
system.membus.transDist::ReadCleanReq           98060                       # Transaction distribution (Count)
system.membus.pktCount_system.l2.mem_side_port::system.mem_ctrls.port       288399                       # Packet count per connected requestor and responder (Count)
system.membus.pktCount_system.l2.mem_side_port::total       288399                       # Packet count per connected requestor and responder (Count)
system.membus.pktCount::total                  288399                       # Packet count per connected requestor and responder (Count)
system.membus.pktSize_system.l2.mem_side_port::system.mem_ctrls.port      6287616                       # Cumulative packet size per connected requestor and responder (Byte)
system.membus.pktSize_system.l2.mem_side_port::total      6287616                       # Cumulative packet size per connected requestor and responder (Byte)
system.membus.pktSize::total                  6287616                       # Cumulative packet size per connected requestor and responder (Byte)
system.membus.snoops                                0                       # Total snoops (Count)
system.membus.snoopTraffic                          0                       # Total snoop traffic (Byte)
system.membus.snoopFanout::samples              98062                       # Request fanout histogram (Count)
system.membus.snoopFanout::mean                     0                       # Request fanout histogram (Count)
system.membus.snoopFanout::stdev                    0                       # Request fanout histogram (Count)
system.membus.snoopFanout::underflows               0      0.00%      0.00% # Request fanout histogram (Count)
system.membus.snoopFanout::0                    98062    100.00%    100.00% # Request fanout histogram (Count)
system.membus.snoopFanout::1                        0      0.00%    100.00% # Request fanout histogram (Count)
system.membus.snoopFanout::2                        0      0.00%    100.00% # Request fanout histogram (Count)
system.membus.snoopFanout::overflows                0      0.00%    100.00% # Request fanout histogram (Count)
system.membus.snoopFanout::min_value                0                       # Request fanout histogram (Count)
system.membus.snoopFanout::max_value                0                       # Request fanout histogram (Count)
system.membus.snoopFanout::total                98062                       # Request fanout histogram (Count)
system.membus.badaddr_responder.power_state.pwrStateResidencyTicks::UNDEFINED   5202631000                       # Cumulative time (in ticks) in various power states (Tick)
system.membus.power_state.pwrStateResidencyTicks::UNDEFINED   5202631000                       # Cumulative time (in ticks) in various power states (Tick)
system.membus.reqLayer4.occupancy           231879500                       # Layer occupancy (ticks) (Tick)
system.membus.reqLayer4.utilization               0.0                       # Layer utilization (Ratio)
system.membus.respLayer2.occupancy          519323784                       # Layer occupancy (ticks) (Tick)
system.membus.respLayer2.utilization              0.1                       # Layer utilization (Ratio)
system.membus.snoop_filter.totRequests         190337                       # Total number of requests made to the snoop filter. (Count)
system.membus.snoop_filter.hitSingleRequests        97444                       # Number of requests hitting in the snoop filter with a single holder of the requested data. (Count)
system.membus.snoop_filter.hitMultiRequests            0                       # Number of requests hitting in the snoop filter with multiple (>1) holders of the requested data. (Count)
system.membus.snoop_filter.totSnoops                0                       # Total number of snoops made to the snoop filter. (Count)
system.membus.snoop_filter.hitSingleSnoops            0                       # Number of snoops hitting in the snoop filter with a single holder of the requested data. (Count)
system.membus.snoop_filter.hitMultiSnoops            0                       # Number of snoops hitting in the snoop filter with multiple (>1) holders of the requested data. (Count)
system.mmcs.power_state.pwrStateResidencyTicks::UNDEFINED   5202631000                       # Cumulative time (in ticks) in various power states (Tick)
system.tol2bus.transDist::ReadResp             115413                       # Transaction distribution (Count)
system.tol2bus.transDist::WritebackDirty        18345                       # Transaction distribution (Count)
system.tol2bus.transDist::CleanEvict            97263                       # Transaction distribution (Count)
system.tol2bus.transDist::ReadExReq                13                       # Transaction distribution (Count)
system.tol2bus.transDist::ReadExResp               13                       # Transaction distribution (Count)
system.tol2bus.transDist::ReadSharedReq        115413                       # Transaction distribution (Count)
system.tol2bus.pktCount_system.cpu.dcache.mem_side_port::system.l2.cpu_side_port       264540                       # Packet count per connected requestor and responder (Count)
system.tol2bus.pktCount_system.cpu.dtb_walker_cache.mem_side_port::system.l2.cpu_side_port        81738                       # Packet count per connected requestor and responder (Count)
system.tol2bus.pktCount::total                 346278                       # Packet count per connected requestor and responder (Count)
system.tol2bus.pktSize_system.cpu.dcache.mem_side_port::system.l2.cpu_side_port      6805952                       # Cumulative packet size per connected requestor and responder (Byte)
system.tol2bus.pktSize_system.cpu.dtb_walker_cache.mem_side_port::system.l2.cpu_side_port      1743744                       # Cumulative packet size per connected requestor and responder (Byte)
system.tol2bus.pktSize::total                 8549696                       # Cumulative packet size per connected requestor and responder (Byte)
system.tol2bus.snoops                             182                       # Total snoops (Count)
system.tol2bus.snoopTraffic                     11648                       # Total snoop traffic (Byte)
system.tol2bus.snoopFanout::samples            115608                       # Request fanout histogram (Count)
system.tol2bus.snoopFanout::mean             0.044711                       # Request fanout histogram (Count)
system.tol2bus.snoopFanout::stdev            0.206670                       # Request fanout histogram (Count)
system.tol2bus.snoopFanout::underflows              0      0.00%      0.00% # Request fanout histogram (Count)
system.tol2bus.snoopFanout::0                  110439     95.53%     95.53% # Request fanout histogram (Count)
system.tol2bus.snoopFanout::1                    5169      4.47%    100.00% # Request fanout histogram (Count)
system.tol2bus.snoopFanout::2                       0      0.00%    100.00% # Request fanout histogram (Count)
system.tol2bus.snoopFanout::3                       0      0.00%    100.00% # Request fanout histogram (Count)
system.tol2bus.snoopFanout::4                       0      0.00%    100.00% # Request fanout histogram (Count)
system.tol2bus.snoopFanout::overflows               0      0.00%    100.00% # Request fanout histogram (Count)
system.tol2bus.snoopFanout::min_value               0                       # Request fanout histogram (Count)
system.tol2bus.snoopFanout::max_value               1                       # Request fanout histogram (Count)
system.tol2bus.snoopFanout::total              115608                       # Request fanout histogram (Count)
system.tol2bus.power_state.pwrStateResidencyTicks::UNDEFINED   5202631000                       # Cumulative time (in ticks) in various power states (Tick)
system.tol2bus.reqLayer0.occupancy          124507500                       # Layer occupancy (ticks) (Tick)
system.tol2bus.reqLayer0.utilization              0.0                       # Layer utilization (Ratio)
system.tol2bus.respLayer1.occupancy          88180000                       # Layer occupancy (ticks) (Tick)
system.tol2bus.respLayer1.utilization             0.0                       # Layer utilization (Ratio)
system.tol2bus.respLayer3.occupancy          27267956                       # Layer occupancy (ticks) (Tick)
system.tol2bus.respLayer3.utilization             0.0                       # Layer utilization (Ratio)
system.tol2bus.snoop_filter.totRequests        230852                       # Total number of requests made to the snoop filter. (Count)
system.tol2bus.snoop_filter.hitSingleRequests       115425                       # Number of requests hitting in the snoop filter with a single holder of the requested data. (Count)
system.tol2bus.snoop_filter.hitMultiRequests         5170                       # Number of requests hitting in the snoop filter with multiple (>1) holders of the requested data. (Count)
system.tol2bus.snoop_filter.totSnoops               0                       # Total number of snoops made to the snoop filter. (Count)
system.tol2bus.snoop_filter.hitSingleSnoops            0                       # Number of snoops hitting in the snoop filter with a single holder of the requested data. (Count)
system.tol2bus.snoop_filter.hitMultiSnoops            0                       # Number of snoops hitting in the snoop filter with multiple (>1) holders of the requested data. (Count)
system.uartlite.power_state.pwrStateResidencyTicks::UNDEFINED   5202631000                       # Cumulative time (in ticks) in various power states (Tick)
system.voltage_domain.voltage                       1                       # Voltage in Volts (Volt)
system.workload.inst.arm                            0                       # number of arm instructions executed (Count)
system.workload.inst.quiesce                        0                       # number of quiesce instructions executed (Count)

---------- End Simulation Statistics   ----------
