
---------- Begin Simulation Statistics ----------
simSeconds                                   0.003476                       # Number of seconds simulated (Second)
simTicks                                   3476338000                       # Number of ticks simulated (Tick)
finalTick                                  3476338000                       # Number of ticks from beginning of simulation (restored from checkpoints and never reset) (Tick)
simFreq                                  1000000000000                       # The number of ticks per simulated second ((Tick/Second))
hostSeconds                                     56.76                       # Real time elapsed on the host (Second)
hostTickRate                                 61242944                       # The number of ticks simulated per host second (ticks/s) ((Tick/Second))
hostMemory                                   16922844                       # Number of bytes of host memory used (Byte)
simInsts                                     10000001                       # Number of instructions simulated (Count)
simOps                                       10676445                       # Number of ops (including micro ops) simulated (Count)
hostInstRate                                   176170                       # Simulator instruction rate (inst/s) ((Count/Second))
hostOpRate                                     188087                       # Simulator op (including micro ops) rate (op/s) ((Count/Second))
system.bridge.power_state.pwrStateResidencyTicks::UNDEFINED   3476338000                       # Cumulative time (in ticks) in various power states (Tick)
system.clk_domain.clock                          1000                       # Clock period in ticks (Tick)
system.cpu.numCycles                          6952677                       # Number of cpu cycles simulated (Cycle)
system.cpu.numWorkItemsStarted                      0                       # Number of work items this cpu started (Count)
system.cpu.numWorkItemsCompleted                    0                       # Number of work items this cpu completed (Count)
system.cpu.instsAdded                        10547713                       # Number of instructions added to the IQ (excludes non-spec) (Count)
system.cpu.nonSpecInstsAdded                   137222                       # Number of non-speculative instructions added to the IQ (Count)
system.cpu.instsIssued                       10406320                       # Number of instructions issued (Count)
system.cpu.squashedInstsIssued                   1362                       # Number of squashed instructions issued (Count)
system.cpu.squashedInstsExamined               418570                       # Number of squashed instructions iterated over during squash; mainly for profiling (Count)
system.cpu.squashedOperandsExamined            469116                       # Number of squashed operands that are examined and possibly removed from graph (Count)
system.cpu.squashedNonSpecRemoved                  73                       # Number of squashed non-spec instructions that were removed (Count)
system.cpu.numIssuedDist::samples             6929841                       # Number of insts issued each cycle (Count)
system.cpu.numIssuedDist::mean               1.501668                       # Number of insts issued each cycle (Count)
system.cpu.numIssuedDist::stdev              2.051574                       # Number of insts issued each cycle (Count)
system.cpu.numIssuedDist::underflows                0      0.00%      0.00% # Number of insts issued each cycle (Count)
system.cpu.numIssuedDist::0                   3552570     51.26%     51.26% # Number of insts issued each cycle (Count)
system.cpu.numIssuedDist::1                    849511     12.26%     63.52% # Number of insts issued each cycle (Count)
system.cpu.numIssuedDist::2                    736885     10.63%     74.16% # Number of insts issued each cycle (Count)
system.cpu.numIssuedDist::3                    622801      8.99%     83.14% # Number of insts issued each cycle (Count)
system.cpu.numIssuedDist::4                    457045      6.60%     89.74% # Number of insts issued each cycle (Count)
system.cpu.numIssuedDist::5                    297722      4.30%     94.04% # Number of insts issued each cycle (Count)
system.cpu.numIssuedDist::6                    156853      2.26%     96.30% # Number of insts issued each cycle (Count)
system.cpu.numIssuedDist::7                     94904      1.37%     97.67% # Number of insts issued each cycle (Count)
system.cpu.numIssuedDist::8                    161550      2.33%    100.00% # Number of insts issued each cycle (Count)
system.cpu.numIssuedDist::overflows                 0      0.00%    100.00% # Number of insts issued each cycle (Count)
system.cpu.numIssuedDist::min_value                 0                       # Number of insts issued each cycle (Count)
system.cpu.numIssuedDist::max_value                 8                       # Number of insts issued each cycle (Count)
system.cpu.numIssuedDist::total               6929841                       # Number of insts issued each cycle (Count)
system.cpu.statFuBusy::No_OpClass                   0      0.00%      0.00% # attempts to use FU when none available (Count)
system.cpu.statFuBusy::IntAlu                    1971      0.28%      0.28% # attempts to use FU when none available (Count)
system.cpu.statFuBusy::IntMult                     15      0.00%      0.28% # attempts to use FU when none available (Count)
system.cpu.statFuBusy::IntDiv                       0      0.00%      0.28% # attempts to use FU when none available (Count)
system.cpu.statFuBusy::FloatAdd                     0      0.00%      0.28% # attempts to use FU when none available (Count)
system.cpu.statFuBusy::FloatCmp                   743      0.11%      0.39% # attempts to use FU when none available (Count)
system.cpu.statFuBusy::FloatCvt                  3986      0.57%      0.95% # attempts to use FU when none available (Count)
system.cpu.statFuBusy::FloatMult                 1810      0.26%      1.21% # attempts to use FU when none available (Count)
system.cpu.statFuBusy::FloatMultAcc                 0      0.00%      1.21% # attempts to use FU when none available (Count)
system.cpu.statFuBusy::FloatDiv                    81      0.01%      1.22% # attempts to use FU when none available (Count)
system.cpu.statFuBusy::FloatMisc                29011      4.12%      5.35% # attempts to use FU when none available (Count)
system.cpu.statFuBusy::FloatSqrt                    0      0.00%      5.35% # attempts to use FU when none available (Count)
system.cpu.statFuBusy::SimdAdd                      0      0.00%      5.35% # attempts to use FU when none available (Count)
system.cpu.statFuBusy::SimdAddAcc                   0      0.00%      5.35% # attempts to use FU when none available (Count)
system.cpu.statFuBusy::SimdAlu                      0      0.00%      5.35% # attempts to use FU when none available (Count)
system.cpu.statFuBusy::SimdCmp                      0      0.00%      5.35% # attempts to use FU when none available (Count)
system.cpu.statFuBusy::SimdCvt                      0      0.00%      5.35% # attempts to use FU when none available (Count)
system.cpu.statFuBusy::SimdMisc                     0      0.00%      5.35% # attempts to use FU when none available (Count)
system.cpu.statFuBusy::SimdMult                     0      0.00%      5.35% # attempts to use FU when none available (Count)
system.cpu.statFuBusy::SimdMultAcc                  0      0.00%      5.35% # attempts to use FU when none available (Count)
system.cpu.statFuBusy::SimdShift                    0      0.00%      5.35% # attempts to use FU when none available (Count)
system.cpu.statFuBusy::SimdShiftAcc                 0      0.00%      5.35% # attempts to use FU when none available (Count)
system.cpu.statFuBusy::SimdDiv                      0      0.00%      5.35% # attempts to use FU when none available (Count)
system.cpu.statFuBusy::SimdSqrt                     0      0.00%      5.35% # attempts to use FU when none available (Count)
system.cpu.statFuBusy::SimdFloatAdd                 0      0.00%      5.35% # attempts to use FU when none available (Count)
system.cpu.statFuBusy::SimdFloatAlu                 0      0.00%      5.35% # attempts to use FU when none available (Count)
system.cpu.statFuBusy::SimdFloatCmp                 0      0.00%      5.35% # attempts to use FU when none available (Count)
system.cpu.statFuBusy::SimdFloatCvt                 0      0.00%      5.35% # attempts to use FU when none available (Count)
system.cpu.statFuBusy::SimdFloatDiv                 0      0.00%      5.35% # attempts to use FU when none available (Count)
system.cpu.statFuBusy::SimdFloatMisc                0      0.00%      5.35% # attempts to use FU when none available (Count)
system.cpu.statFuBusy::SimdFloatMult                0      0.00%      5.35% # attempts to use FU when none available (Count)
system.cpu.statFuBusy::SimdFloatMultAcc             0      0.00%      5.35% # attempts to use FU when none available (Count)
system.cpu.statFuBusy::SimdFloatSqrt                0      0.00%      5.35% # attempts to use FU when none available (Count)
system.cpu.statFuBusy::SimdReduceAdd                0      0.00%      5.35% # attempts to use FU when none available (Count)
system.cpu.statFuBusy::SimdReduceAlu                0      0.00%      5.35% # attempts to use FU when none available (Count)
system.cpu.statFuBusy::SimdReduceCmp                0      0.00%      5.35% # attempts to use FU when none available (Count)
system.cpu.statFuBusy::SimdFloatReduceAdd            0      0.00%      5.35% # attempts to use FU when none available (Count)
system.cpu.statFuBusy::SimdFloatReduceCmp            0      0.00%      5.35% # attempts to use FU when none available (Count)
system.cpu.statFuBusy::SimdAes                      0      0.00%      5.35% # attempts to use FU when none available (Count)
system.cpu.statFuBusy::SimdAesMix                   0      0.00%      5.35% # attempts to use FU when none available (Count)
system.cpu.statFuBusy::SimdSha1Hash                 0      0.00%      5.35% # attempts to use FU when none available (Count)
system.cpu.statFuBusy::SimdSha1Hash2                0      0.00%      5.35% # attempts to use FU when none available (Count)
system.cpu.statFuBusy::SimdSha256Hash               0      0.00%      5.35% # attempts to use FU when none available (Count)
system.cpu.statFuBusy::SimdSha256Hash2              0      0.00%      5.35% # attempts to use FU when none available (Count)
system.cpu.statFuBusy::SimdShaSigma2                0      0.00%      5.35% # attempts to use FU when none available (Count)
system.cpu.statFuBusy::SimdShaSigma3                0      0.00%      5.35% # attempts to use FU when none available (Count)
system.cpu.statFuBusy::SimdPredAlu                  0      0.00%      5.35% # attempts to use FU when none available (Count)
system.cpu.statFuBusy::MemRead                 234614     33.35%     38.70% # attempts to use FU when none available (Count)
system.cpu.statFuBusy::MemWrite                133219     18.94%     57.63% # attempts to use FU when none available (Count)
system.cpu.statFuBusy::FloatMemRead            277774     39.48%     97.12% # attempts to use FU when none available (Count)
system.cpu.statFuBusy::FloatMemWrite             4395      0.62%     97.74% # attempts to use FU when none available (Count)
system.cpu.statFuBusy::IprAccess                    0      0.00%     97.74% # attempts to use FU when none available (Count)
system.cpu.statFuBusy::InstPrefetch                 0      0.00%     97.74% # attempts to use FU when none available (Count)
system.cpu.statFuBusy::FMAMul                   15880      2.26%    100.00% # attempts to use FU when none available (Count)
system.cpu.statFuBusy::FMAAcc                       8      0.00%    100.00% # attempts to use FU when none available (Count)
system.cpu.statIssuedInstType_0::No_OpClass       137132      1.32%      1.32% # Number of instructions issued per FU type, per thread (Count)
system.cpu.statIssuedInstType_0::IntAlu       3391637     32.59%     33.91% # Number of instructions issued per FU type, per thread (Count)
system.cpu.statIssuedInstType_0::IntMult        30183      0.29%     34.20% # Number of instructions issued per FU type, per thread (Count)
system.cpu.statIssuedInstType_0::IntDiv             6      0.00%     34.20% # Number of instructions issued per FU type, per thread (Count)
system.cpu.statIssuedInstType_0::FloatAdd       520878      5.01%     39.21% # Number of instructions issued per FU type, per thread (Count)
system.cpu.statIssuedInstType_0::FloatCmp       288932      2.78%     41.98% # Number of instructions issued per FU type, per thread (Count)
system.cpu.statIssuedInstType_0::FloatCvt       601157      5.78%     47.76% # Number of instructions issued per FU type, per thread (Count)
system.cpu.statIssuedInstType_0::FloatMult       487198      4.68%     52.44% # Number of instructions issued per FU type, per thread (Count)
system.cpu.statIssuedInstType_0::FloatMultAcc            0      0.00%     52.44% # Number of instructions issued per FU type, per thread (Count)
system.cpu.statIssuedInstType_0::FloatDiv           19      0.00%     52.44% # Number of instructions issued per FU type, per thread (Count)
system.cpu.statIssuedInstType_0::FloatMisc       280331      2.69%     55.13% # Number of instructions issued per FU type, per thread (Count)
system.cpu.statIssuedInstType_0::FloatSqrt           15      0.00%     55.13% # Number of instructions issued per FU type, per thread (Count)
system.cpu.statIssuedInstType_0::SimdAdd            0      0.00%     55.13% # Number of instructions issued per FU type, per thread (Count)
system.cpu.statIssuedInstType_0::SimdAddAcc            0      0.00%     55.13% # Number of instructions issued per FU type, per thread (Count)
system.cpu.statIssuedInstType_0::SimdAlu            0      0.00%     55.13% # Number of instructions issued per FU type, per thread (Count)
system.cpu.statIssuedInstType_0::SimdCmp            0      0.00%     55.13% # Number of instructions issued per FU type, per thread (Count)
system.cpu.statIssuedInstType_0::SimdCvt            0      0.00%     55.13% # Number of instructions issued per FU type, per thread (Count)
system.cpu.statIssuedInstType_0::SimdMisc            0      0.00%     55.13% # Number of instructions issued per FU type, per thread (Count)
system.cpu.statIssuedInstType_0::SimdMult            0      0.00%     55.13% # Number of instructions issued per FU type, per thread (Count)
system.cpu.statIssuedInstType_0::SimdMultAcc            0      0.00%     55.13% # Number of instructions issued per FU type, per thread (Count)
system.cpu.statIssuedInstType_0::SimdShift            0      0.00%     55.13% # Number of instructions issued per FU type, per thread (Count)
system.cpu.statIssuedInstType_0::SimdShiftAcc            0      0.00%     55.13% # Number of instructions issued per FU type, per thread (Count)
system.cpu.statIssuedInstType_0::SimdDiv            0      0.00%     55.13% # Number of instructions issued per FU type, per thread (Count)
system.cpu.statIssuedInstType_0::SimdSqrt            0      0.00%     55.13% # Number of instructions issued per FU type, per thread (Count)
system.cpu.statIssuedInstType_0::SimdFloatAdd            0      0.00%     55.13% # Number of instructions issued per FU type, per thread (Count)
system.cpu.statIssuedInstType_0::SimdFloatAlu            0      0.00%     55.13% # Number of instructions issued per FU type, per thread (Count)
system.cpu.statIssuedInstType_0::SimdFloatCmp            0      0.00%     55.13% # Number of instructions issued per FU type, per thread (Count)
system.cpu.statIssuedInstType_0::SimdFloatCvt            0      0.00%     55.13% # Number of instructions issued per FU type, per thread (Count)
system.cpu.statIssuedInstType_0::SimdFloatDiv            0      0.00%     55.13% # Number of instructions issued per FU type, per thread (Count)
system.cpu.statIssuedInstType_0::SimdFloatMisc            0      0.00%     55.13% # Number of instructions issued per FU type, per thread (Count)
system.cpu.statIssuedInstType_0::SimdFloatMult            0      0.00%     55.13% # Number of instructions issued per FU type, per thread (Count)
system.cpu.statIssuedInstType_0::SimdFloatMultAcc            0      0.00%     55.13% # Number of instructions issued per FU type, per thread (Count)
system.cpu.statIssuedInstType_0::SimdFloatSqrt            0      0.00%     55.13% # Number of instructions issued per FU type, per thread (Count)
system.cpu.statIssuedInstType_0::SimdReduceAdd            0      0.00%     55.13% # Number of instructions issued per FU type, per thread (Count)
system.cpu.statIssuedInstType_0::SimdReduceAlu            0      0.00%     55.13% # Number of instructions issued per FU type, per thread (Count)
system.cpu.statIssuedInstType_0::SimdReduceCmp            0      0.00%     55.13% # Number of instructions issued per FU type, per thread (Count)
system.cpu.statIssuedInstType_0::SimdFloatReduceAdd            0      0.00%     55.13% # Number of instructions issued per FU type, per thread (Count)
system.cpu.statIssuedInstType_0::SimdFloatReduceCmp            0      0.00%     55.13% # Number of instructions issued per FU type, per thread (Count)
system.cpu.statIssuedInstType_0::SimdAes            0      0.00%     55.13% # Number of instructions issued per FU type, per thread (Count)
system.cpu.statIssuedInstType_0::SimdAesMix            0      0.00%     55.13% # Number of instructions issued per FU type, per thread (Count)
system.cpu.statIssuedInstType_0::SimdSha1Hash            0      0.00%     55.13% # Number of instructions issued per FU type, per thread (Count)
system.cpu.statIssuedInstType_0::SimdSha1Hash2            0      0.00%     55.13% # Number of instructions issued per FU type, per thread (Count)
system.cpu.statIssuedInstType_0::SimdSha256Hash            0      0.00%     55.13% # Number of instructions issued per FU type, per thread (Count)
system.cpu.statIssuedInstType_0::SimdSha256Hash2            0      0.00%     55.13% # Number of instructions issued per FU type, per thread (Count)
system.cpu.statIssuedInstType_0::SimdShaSigma2            0      0.00%     55.13% # Number of instructions issued per FU type, per thread (Count)
system.cpu.statIssuedInstType_0::SimdShaSigma3            0      0.00%     55.13% # Number of instructions issued per FU type, per thread (Count)
system.cpu.statIssuedInstType_0::SimdPredAlu            0      0.00%     55.13% # Number of instructions issued per FU type, per thread (Count)
system.cpu.statIssuedInstType_0::MemRead       707642      6.80%     61.93% # Number of instructions issued per FU type, per thread (Count)
system.cpu.statIssuedInstType_0::MemWrite       655429      6.30%     68.23% # Number of instructions issued per FU type, per thread (Count)
system.cpu.statIssuedInstType_0::FloatMemRead      1500275     14.42%     82.65% # Number of instructions issued per FU type, per thread (Count)
system.cpu.statIssuedInstType_0::FloatMemWrite       452434      4.35%     87.00% # Number of instructions issued per FU type, per thread (Count)
system.cpu.statIssuedInstType_0::IprAccess            0      0.00%     87.00% # Number of instructions issued per FU type, per thread (Count)
system.cpu.statIssuedInstType_0::InstPrefetch            0      0.00%     87.00% # Number of instructions issued per FU type, per thread (Count)
system.cpu.statIssuedInstType_0::FMAMul        676552      6.50%     93.50% # Number of instructions issued per FU type, per thread (Count)
system.cpu.statIssuedInstType_0::FMAAcc        676500      6.50%    100.00% # Number of instructions issued per FU type, per thread (Count)
system.cpu.statIssuedInstType_0::total       10406320                       # Number of instructions issued per FU type, per thread (Count)
system.cpu.issueRate                         1.496736                       # Inst issue rate ((Count/Cycle))
system.cpu.fuBusy                              703507                       # FU busy when requested (Count)
system.cpu.fuBusyRate                        0.067604                       # FU busy rate (busy events/executed inst) ((Count/Count))
system.cpu.intInstQueueReads                 17144997                       # Number of integer instruction queue reads (Count)
system.cpu.intInstQueueWrites                 5504593                       # Number of integer instruction queue writes (Count)
system.cpu.intInstQueueWakeupAccesses         4904489                       # Number of integer instruction queue wakeup accesses (Count)
system.cpu.fpInstQueueReads                  11302352                       # Number of floating instruction queue reads (Count)
system.cpu.fpInstQueueWrites                  5613685                       # Number of floating instruction queue writes (Count)
system.cpu.fpInstQueueWakeupAccesses          5432821                       # Number of floating instruction queue wakeup accesses (Count)
system.cpu.vecInstQueueReads                        0                       # Number of vector instruction queue reads (Count)
system.cpu.vecInstQueueWrites                       0                       # Number of vector instruction queue writes (Count)
system.cpu.vecInstQueueWakeupAccesses               0                       # Number of vector instruction queue wakeup accesses (Count)
system.cpu.intAluAccesses                     5154716                       # Number of integer alu accesses (Count)
system.cpu.fpAluAccesses                      5817979                       # Number of floating point alu accesses (Count)
system.cpu.vecAluAccesses                           0                       # Number of vector alu accesses (Count)
system.cpu.numInsts                          10371932                       # Number of executed instructions (Count)
system.cpu.numLoadInsts                       2189668                       # Number of load instructions executed (Count)
system.cpu.numSquashedInsts                     33242                       # Number of squashed instructions skipped in execute (Count)
system.cpu.numSwp                                   0                       # Number of swp insts executed (Count)
system.cpu.numNop                              411144                       # Number of nop insts executed (Count)
system.cpu.numRefs                            3296924                       # Number of memory reference insts executed (Count)
system.cpu.numBranches                        1157061                       # Number of branches executed (Count)
system.cpu.numStoreInsts                      1107256                       # Number of stores executed (Count)
system.cpu.numRate                           1.491790                       # Inst execution rate ((Count/Cycle))
system.cpu.timesIdled                             267                       # Number of times that the entire CPU went into an idle state and unscheduled itself (Count)
system.cpu.idleCycles                           22836                       # Total number of cycles that the CPU has spent unscheduled due to idling (Cycle)
system.cpu.committedInsts                    10000001                       # Number of Instructions Simulated (Count)
system.cpu.committedOps                      10676445                       # Number of Ops (including micro ops) Simulated (Count)
system.cpu.cpi                               0.695268                       # CPI: Cycles Per Instruction ((Cycle/Count))
system.cpu.totalCpi                          0.695268                       # CPI: Total CPI of All Threads ((Cycle/Count))
system.cpu.ipc                               1.438295                       # IPC: Instructions Per Cycle ((Count/Cycle))
system.cpu.totalIpc                          1.438295                       # IPC: Total IPC of All Threads ((Count/Cycle))
system.cpu.intRegfileReads                    8770768                       # Number of integer regfile reads (Count)
system.cpu.intRegfileWrites                   3637594                       # Number of integer regfile writes (Count)
system.cpu.fpRegfileReads                     5835371                       # Number of floating regfile reads (Count)
system.cpu.fpRegfileWrites                    3829231                       # Number of floating regfile writes (Count)
system.cpu.miscRegfileReads                 100650174                       # number of misc regfile reads (Count)
system.cpu.miscRegfileWrites                  4302754                       # number of misc regfile writes (Count)
system.cpu.lastCommitTick                  3476338000                       # The last tick to commit an instruction (Count)
system.cpu.MemDepUnit__0.insertedLoads        2290388                       # Number of loads inserted to the mem dependence unit. (Count)
system.cpu.MemDepUnit__0.insertedStores       1152922                       # Number of stores inserted to the mem dependence unit. (Count)
system.cpu.MemDepUnit__0.conflictingLoads       302532                       # Number of conflicting loads. (Count)
system.cpu.MemDepUnit__0.conflictingStores       214785                       # Number of conflicting stores. (Count)
system.cpu.MemDepUnit__1.insertedLoads              0                       # Number of loads inserted to the mem dependence unit. (Count)
system.cpu.MemDepUnit__1.insertedStores             0                       # Number of stores inserted to the mem dependence unit. (Count)
system.cpu.MemDepUnit__1.conflictingLoads            0                       # Number of conflicting loads. (Count)
system.cpu.MemDepUnit__1.conflictingStores            0                       # Number of conflicting stores. (Count)
system.cpu.MemDepUnit__2.insertedLoads              0                       # Number of loads inserted to the mem dependence unit. (Count)
system.cpu.MemDepUnit__2.insertedStores             0                       # Number of stores inserted to the mem dependence unit. (Count)
system.cpu.MemDepUnit__2.conflictingLoads            0                       # Number of conflicting loads. (Count)
system.cpu.MemDepUnit__2.conflictingStores            0                       # Number of conflicting stores. (Count)
system.cpu.MemDepUnit__3.insertedLoads              0                       # Number of loads inserted to the mem dependence unit. (Count)
system.cpu.MemDepUnit__3.insertedStores             0                       # Number of stores inserted to the mem dependence unit. (Count)
system.cpu.MemDepUnit__3.conflictingLoads            0                       # Number of conflicting loads. (Count)
system.cpu.MemDepUnit__3.conflictingStores            0                       # Number of conflicting stores. (Count)
system.cpu.branchPred.lookups                 1458563                       # Number of BP lookups (Count)
system.cpu.branchPred.condPredicted           1082684                       # Number of conditional branches predicted (Count)
system.cpu.branchPred.condIncorrect               954                       # Number of conditional branches incorrect (Count)
system.cpu.branchPred.BTBLookups               923476                       # Number of BTB lookups (Count)
system.cpu.branchPred.BTBHits                  922973                       # Number of BTB hits (Count)
system.cpu.branchPred.BTBHitRatio            0.999455                       # BTB Hit Ratio (Ratio)
system.cpu.branchPred.RASUsed                  148894                       # Number of times the RAS was used to get a target. (Count)
system.cpu.branchPred.RASIncorrect                 14                       # Number of incorrect RAS predictions. (Count)
system.cpu.branchPred.indirectLookups           46216                       # Number of indirect predictor lookups. (Count)
system.cpu.branchPred.indirectHits              46216                       # Number of indirect target hits. (Count)
system.cpu.branchPred.indirectMisses                0                       # Number of indirect misses. (Count)
system.cpu.branchPred.indirectMispredicted           48                       # Number of mispredicted indirect branches. (Count)
system.cpu.branchPred.indirectBranchPred.mainlookupHit         2215                       # ittage the provider component lookup hit (Count)
system.cpu.branchPred.tage.longestMatchProviderCorrect       371428                       # Number of times TAGE Longest Match is the provider and the prediction is correct (Count)
system.cpu.branchPred.tage.altMatchProviderCorrect          285                       # Number of times TAGE Alt Match is the provider and the prediction is correct (Count)
system.cpu.branchPred.tage.bimodalAltMatchProviderCorrect          146                       # Number of times TAGE Alt Match is the bimodal and it is the provider and the prediction is correct (Count)
system.cpu.branchPred.tage.bimodalProviderCorrect       482878                       # Number of times there are no hits on the TAGE tables and the bimodal prediction is correct (Count)
system.cpu.branchPred.tage.longestMatchProviderWrong          177                       # Number of times TAGE Longest Match is the provider and the prediction is wrong (Count)
system.cpu.branchPred.tage.altMatchProviderWrong           40                       # Number of times TAGE Alt Match is the provider and the prediction is wrong (Count)
system.cpu.branchPred.tage.bimodalAltMatchProviderWrong           20                       # Number of times TAGE Alt Match is the bimodal and it is the provider and the prediction is wrong (Count)
system.cpu.branchPred.tage.bimodalProviderWrong          372                       # Number of times there are no hits on the TAGE tables and the bimodal prediction is wrong (Count)
system.cpu.branchPred.tage.altMatchProviderWouldHaveHit           16                       # Number of times TAGE Longest Match is the provider, the prediction is wrong and Alt Match prediction was correct (Count)
system.cpu.branchPred.tage.longestMatchProviderWouldHaveHit           47                       # Number of times TAGE Alt Match is the provider, the prediction is wrong and Longest Match prediction was correct (Count)
system.cpu.branchPred.tage.longestMatchProvider::0            0                       # TAGE provider for longest match (Count)
system.cpu.branchPred.tage.longestMatchProvider::1       158173                       # TAGE provider for longest match (Count)
system.cpu.branchPred.tage.longestMatchProvider::2       116510                       # TAGE provider for longest match (Count)
system.cpu.branchPred.tage.longestMatchProvider::3        23176                       # TAGE provider for longest match (Count)
system.cpu.branchPred.tage.longestMatchProvider::4        27342                       # TAGE provider for longest match (Count)
system.cpu.branchPred.tage.longestMatchProvider::5         5253                       # TAGE provider for longest match (Count)
system.cpu.branchPred.tage.longestMatchProvider::6         2223                       # TAGE provider for longest match (Count)
system.cpu.branchPred.tage.longestMatchProvider::7        39253                       # TAGE provider for longest match (Count)
system.cpu.branchPred.tage.altMatchProvider::0       230767                       # TAGE provider for alt match (Count)
system.cpu.branchPred.tage.altMatchProvider::1        61613                       # TAGE provider for alt match (Count)
system.cpu.branchPred.tage.altMatchProvider::2        14116                       # TAGE provider for alt match (Count)
system.cpu.branchPred.tage.altMatchProvider::3        22213                       # TAGE provider for alt match (Count)
system.cpu.branchPred.tage.altMatchProvider::4        13273                       # TAGE provider for alt match (Count)
system.cpu.branchPred.tage.altMatchProvider::5        18471                       # TAGE provider for alt match (Count)
system.cpu.branchPred.tage.altMatchProvider::6        11477                       # TAGE provider for alt match (Count)
system.cpu.branchPred.tage.altMatchProvider::7            0                       # TAGE provider for alt match (Count)
system.cpu.commit.commitSquashedInsts          419382                       # The number of squashed insts skipped by commit (Count)
system.cpu.commit.commitNonSpecStalls          137149                       # The number of times commit has been forced to stall to communicate backwards (Count)
system.cpu.commit.branchMispredicts               790                       # The number of times a branch was mispredicted (Count)
system.cpu.commit.numCommittedDist::samples      6851843                       # Number of insts commited each cycle (Count)
system.cpu.commit.numCommittedDist::mean     1.558186                       # Number of insts commited each cycle (Count)
system.cpu.commit.numCommittedDist::stdev     2.366869                       # Number of insts commited each cycle (Count)
system.cpu.commit.numCommittedDist::underflows            0      0.00%      0.00% # Number of insts commited each cycle (Count)
system.cpu.commit.numCommittedDist::0         4063029     59.30%     59.30% # Number of insts commited each cycle (Count)
system.cpu.commit.numCommittedDist::1          689091     10.06%     69.36% # Number of insts commited each cycle (Count)
system.cpu.commit.numCommittedDist::2          357583      5.22%     74.57% # Number of insts commited each cycle (Count)
system.cpu.commit.numCommittedDist::3          344999      5.04%     79.61% # Number of insts commited each cycle (Count)
system.cpu.commit.numCommittedDist::4          182197      2.66%     82.27% # Number of insts commited each cycle (Count)
system.cpu.commit.numCommittedDist::5           74211      1.08%     83.35% # Number of insts commited each cycle (Count)
system.cpu.commit.numCommittedDist::6          923146     13.47%     96.82% # Number of insts commited each cycle (Count)
system.cpu.commit.numCommittedDist::overflows       217587      3.18%    100.00% # Number of insts commited each cycle (Count)
system.cpu.commit.numCommittedDist::min_value            0                       # Number of insts commited each cycle (Count)
system.cpu.commit.numCommittedDist::max_value            9                       # Number of insts commited each cycle (Count)
system.cpu.commit.numCommittedDist::total      6851843                       # Number of insts commited each cycle (Count)
system.cpu.commit.instsCommitted             10000001                       # Number of instructions committed (Count)
system.cpu.commit.opsCommitted               10676445                       # Number of ops (including micro ops) committed (Count)
system.cpu.commit.memRefs                     3243368                       # Number of memory references committed (Count)
system.cpu.commit.loads                       2137200                       # Number of loads committed (Count)
system.cpu.commit.amos                             16                       # Number of atomic instructions committed (Count)
system.cpu.commit.membars                          10                       # Number of memory barriers committed (Count)
system.cpu.commit.branches                    1140152                       # Number of branches committed (Count)
system.cpu.commit.vectorInstructions                0                       # Number of committed Vector instructions. (Count)
system.cpu.commit.floating                    5431434                       # Number of committed floating point instructions. (Count)
system.cpu.commit.integer                     7974363                       # Number of committed integer instructions. (Count)
system.cpu.commit.functionCalls                111898                       # Number of function calls committed. (Count)
system.cpu.commit.committedInstType_0::No_OpClass       137132      1.28%      1.28% # Class of committed instruction (Count)
system.cpu.commit.committedInstType_0::IntAlu      3735274     34.99%     36.27% # Class of committed instruction (Count)
system.cpu.commit.committedInstType_0::IntMult        29882      0.28%     36.55% # Class of committed instruction (Count)
system.cpu.commit.committedInstType_0::IntDiv            6      0.00%     36.55% # Class of committed instruction (Count)
system.cpu.commit.committedInstType_0::FloatAdd       520865      4.88%     41.43% # Class of committed instruction (Count)
system.cpu.commit.committedInstType_0::FloatCmp       288844      2.71%     44.13% # Class of committed instruction (Count)
system.cpu.commit.committedInstType_0::FloatCvt       600866      5.63%     49.76% # Class of committed instruction (Count)
system.cpu.commit.committedInstType_0::FloatMult       487127      4.56%     54.33% # Class of committed instruction (Count)
system.cpu.commit.committedInstType_0::FloatMultAcc            0      0.00%     54.33% # Class of committed instruction (Count)
system.cpu.commit.committedInstType_0::FloatDiv           18      0.00%     54.33% # Class of committed instruction (Count)
system.cpu.commit.committedInstType_0::FloatMisc       280181      2.62%     56.95% # Class of committed instruction (Count)
system.cpu.commit.committedInstType_0::FloatSqrt           14      0.00%     56.95% # Class of committed instruction (Count)
system.cpu.commit.committedInstType_0::SimdAdd            0      0.00%     56.95% # Class of committed instruction (Count)
system.cpu.commit.committedInstType_0::SimdAddAcc            0      0.00%     56.95% # Class of committed instruction (Count)
system.cpu.commit.committedInstType_0::SimdAlu            0      0.00%     56.95% # Class of committed instruction (Count)
system.cpu.commit.committedInstType_0::SimdCmp            0      0.00%     56.95% # Class of committed instruction (Count)
system.cpu.commit.committedInstType_0::SimdCvt            0      0.00%     56.95% # Class of committed instruction (Count)
system.cpu.commit.committedInstType_0::SimdMisc            0      0.00%     56.95% # Class of committed instruction (Count)
system.cpu.commit.committedInstType_0::SimdMult            0      0.00%     56.95% # Class of committed instruction (Count)
system.cpu.commit.committedInstType_0::SimdMultAcc            0      0.00%     56.95% # Class of committed instruction (Count)
system.cpu.commit.committedInstType_0::SimdShift            0      0.00%     56.95% # Class of committed instruction (Count)
system.cpu.commit.committedInstType_0::SimdShiftAcc            0      0.00%     56.95% # Class of committed instruction (Count)
system.cpu.commit.committedInstType_0::SimdDiv            0      0.00%     56.95% # Class of committed instruction (Count)
system.cpu.commit.committedInstType_0::SimdSqrt            0      0.00%     56.95% # Class of committed instruction (Count)
system.cpu.commit.committedInstType_0::SimdFloatAdd            0      0.00%     56.95% # Class of committed instruction (Count)
system.cpu.commit.committedInstType_0::SimdFloatAlu            0      0.00%     56.95% # Class of committed instruction (Count)
system.cpu.commit.committedInstType_0::SimdFloatCmp            0      0.00%     56.95% # Class of committed instruction (Count)
system.cpu.commit.committedInstType_0::SimdFloatCvt            0      0.00%     56.95% # Class of committed instruction (Count)
system.cpu.commit.committedInstType_0::SimdFloatDiv            0      0.00%     56.95% # Class of committed instruction (Count)
system.cpu.commit.committedInstType_0::SimdFloatMisc            0      0.00%     56.95% # Class of committed instruction (Count)
system.cpu.commit.committedInstType_0::SimdFloatMult            0      0.00%     56.95% # Class of committed instruction (Count)
system.cpu.commit.committedInstType_0::SimdFloatMultAcc            0      0.00%     56.95% # Class of committed instruction (Count)
system.cpu.commit.committedInstType_0::SimdFloatSqrt            0      0.00%     56.95% # Class of committed instruction (Count)
system.cpu.commit.committedInstType_0::SimdReduceAdd            0      0.00%     56.95% # Class of committed instruction (Count)
system.cpu.commit.committedInstType_0::SimdReduceAlu            0      0.00%     56.95% # Class of committed instruction (Count)
system.cpu.commit.committedInstType_0::SimdReduceCmp            0      0.00%     56.95% # Class of committed instruction (Count)
system.cpu.commit.committedInstType_0::SimdFloatReduceAdd            0      0.00%     56.95% # Class of committed instruction (Count)
system.cpu.commit.committedInstType_0::SimdFloatReduceCmp            0      0.00%     56.95% # Class of committed instruction (Count)
system.cpu.commit.committedInstType_0::SimdAes            0      0.00%     56.95% # Class of committed instruction (Count)
system.cpu.commit.committedInstType_0::SimdAesMix            0      0.00%     56.95% # Class of committed instruction (Count)
system.cpu.commit.committedInstType_0::SimdSha1Hash            0      0.00%     56.95% # Class of committed instruction (Count)
system.cpu.commit.committedInstType_0::SimdSha1Hash2            0      0.00%     56.95% # Class of committed instruction (Count)
system.cpu.commit.committedInstType_0::SimdSha256Hash            0      0.00%     56.95% # Class of committed instruction (Count)
system.cpu.commit.committedInstType_0::SimdSha256Hash2            0      0.00%     56.95% # Class of committed instruction (Count)
system.cpu.commit.committedInstType_0::SimdShaSigma2            0      0.00%     56.95% # Class of committed instruction (Count)
system.cpu.commit.committedInstType_0::SimdShaSigma3            0      0.00%     56.95% # Class of committed instruction (Count)
system.cpu.commit.committedInstType_0::SimdPredAlu            0      0.00%     56.95% # Class of committed instruction (Count)
system.cpu.commit.committedInstType_0::MemRead       688837      6.45%     63.40% # Class of committed instruction (Count)
system.cpu.commit.committedInstType_0::MemWrite       653880      6.12%     69.53% # Class of committed instruction (Count)
system.cpu.commit.committedInstType_0::FloatMemRead      1448379     13.57%     83.09% # Class of committed instruction (Count)
system.cpu.commit.committedInstType_0::FloatMemWrite       452272      4.24%     87.33% # Class of committed instruction (Count)
system.cpu.commit.committedInstType_0::IprAccess            0      0.00%     87.33% # Class of committed instruction (Count)
system.cpu.commit.committedInstType_0::InstPrefetch            0      0.00%     87.33% # Class of committed instruction (Count)
system.cpu.commit.committedInstType_0::FMAMul       676434      6.34%     93.66% # Class of committed instruction (Count)
system.cpu.commit.committedInstType_0::FMAAcc       676434      6.34%    100.00% # Class of committed instruction (Count)
system.cpu.commit.committedInstType_0::total     10676445                       # Class of committed instruction (Count)
system.cpu.commit.commitEligibleSamples        923146                       # number cycles where commit BW limit reached (Cycle)
system.cpu.dcache.demandHits::cpu.data        2819057                       # number of demand (read+write) hits (Count)
system.cpu.dcache.demandHits::total           2819057                       # number of demand (read+write) hits (Count)
system.cpu.dcache.overallHits::cpu.data       2819057                       # number of overall hits (Count)
system.cpu.dcache.overallHits::total          2819057                       # number of overall hits (Count)
system.cpu.dcache.demandMisses::cpu.data       249276                       # number of demand (read+write) misses (Count)
system.cpu.dcache.demandMisses::total          249276                       # number of demand (read+write) misses (Count)
system.cpu.dcache.overallMisses::cpu.data       249276                       # number of overall misses (Count)
system.cpu.dcache.overallMisses::total         249276                       # number of overall misses (Count)
system.cpu.dcache.demandMissLatency::cpu.data   7691734000                       # number of demand (read+write) miss ticks (Tick)
system.cpu.dcache.demandMissLatency::total   7691734000                       # number of demand (read+write) miss ticks (Tick)
system.cpu.dcache.overallMissLatency::cpu.data   7691734000                       # number of overall miss ticks (Tick)
system.cpu.dcache.overallMissLatency::total   7691734000                       # number of overall miss ticks (Tick)
system.cpu.dcache.demandAccesses::cpu.data      3068333                       # number of demand (read+write) accesses (Count)
system.cpu.dcache.demandAccesses::total       3068333                       # number of demand (read+write) accesses (Count)
system.cpu.dcache.overallAccesses::cpu.data      3068333                       # number of overall (read+write) accesses (Count)
system.cpu.dcache.overallAccesses::total      3068333                       # number of overall (read+write) accesses (Count)
system.cpu.dcache.demandMissRate::cpu.data     0.081242                       # miss rate for demand accesses (Ratio)
system.cpu.dcache.demandMissRate::total      0.081242                       # miss rate for demand accesses (Ratio)
system.cpu.dcache.overallMissRate::cpu.data     0.081242                       # miss rate for overall accesses (Ratio)
system.cpu.dcache.overallMissRate::total     0.081242                       # miss rate for overall accesses (Ratio)
system.cpu.dcache.demandAvgMissLatency::cpu.data 30856.295833                       # average overall miss latency in ticks ((Tick/Count))
system.cpu.dcache.demandAvgMissLatency::total 30856.295833                       # average overall miss latency in ticks ((Tick/Count))
system.cpu.dcache.overallAvgMissLatency::cpu.data 30856.295833                       # average overall miss latency ((Tick/Count))
system.cpu.dcache.overallAvgMissLatency::total 30856.295833                       # average overall miss latency ((Tick/Count))
system.cpu.dcache.blockedCycles::no_mshrs        39924                       # number of cycles access was blocked (Cycle)
system.cpu.dcache.blockedCycles::no_targets            0                       # number of cycles access was blocked (Cycle)
system.cpu.dcache.blockedCauses::no_mshrs         4110                       # number of times access was blocked (Count)
system.cpu.dcache.blockedCauses::no_targets            0                       # number of times access was blocked (Count)
system.cpu.dcache.avgBlocked::no_mshrs       9.713869                       # average number of cycles each access was blocked ((Cycle/Count))
system.cpu.dcache.avgBlocked::no_targets          nan                       # average number of cycles each access was blocked ((Cycle/Count))
system.cpu.dcache.writebacks::writebacks        91382                       # number of writebacks (Count)
system.cpu.dcache.writebacks::total             91382                       # number of writebacks (Count)
system.cpu.dcache.demandMshrHits::cpu.data       155846                       # number of demand (read+write) MSHR hits (Count)
system.cpu.dcache.demandMshrHits::total        155846                       # number of demand (read+write) MSHR hits (Count)
system.cpu.dcache.overallMshrHits::cpu.data       155846                       # number of overall MSHR hits (Count)
system.cpu.dcache.overallMshrHits::total       155846                       # number of overall MSHR hits (Count)
system.cpu.dcache.demandMshrMisses::cpu.data        93430                       # number of demand (read+write) MSHR misses (Count)
system.cpu.dcache.demandMshrMisses::total        93430                       # number of demand (read+write) MSHR misses (Count)
system.cpu.dcache.overallMshrMisses::cpu.data        93430                       # number of overall MSHR misses (Count)
system.cpu.dcache.overallMshrMisses::total        93430                       # number of overall MSHR misses (Count)
system.cpu.dcache.overallMshrUncacheable::cpu.data            2                       # number of overall MSHR uncacheable misses (Count)
system.cpu.dcache.overallMshrUncacheable::total            2                       # number of overall MSHR uncacheable misses (Count)
system.cpu.dcache.demandMshrMissLatency::cpu.data   2927372000                       # number of demand (read+write) MSHR miss ticks (Tick)
system.cpu.dcache.demandMshrMissLatency::total   2927372000                       # number of demand (read+write) MSHR miss ticks (Tick)
system.cpu.dcache.overallMshrMissLatency::cpu.data   2927372000                       # number of overall MSHR miss ticks (Tick)
system.cpu.dcache.overallMshrMissLatency::total   2927372000                       # number of overall MSHR miss ticks (Tick)
system.cpu.dcache.demandMshrMissRate::cpu.data     0.030450                       # mshr miss ratio for demand accesses (Ratio)
system.cpu.dcache.demandMshrMissRate::total     0.030450                       # mshr miss ratio for demand accesses (Ratio)
system.cpu.dcache.overallMshrMissRate::cpu.data     0.030450                       # mshr miss ratio for overall accesses (Ratio)
system.cpu.dcache.overallMshrMissRate::total     0.030450                       # mshr miss ratio for overall accesses (Ratio)
system.cpu.dcache.demandAvgMshrMissLatency::cpu.data 31332.248742                       # average overall mshr miss latency ((Tick/Count))
system.cpu.dcache.demandAvgMshrMissLatency::total 31332.248742                       # average overall mshr miss latency ((Tick/Count))
system.cpu.dcache.overallAvgMshrMissLatency::cpu.data 31332.248742                       # average overall mshr miss latency ((Tick/Count))
system.cpu.dcache.overallAvgMshrMissLatency::total 31332.248742                       # average overall mshr miss latency ((Tick/Count))
system.cpu.dcache.replacements                  91382                       # number of replacements (Count)
system.cpu.dcache.ReadReq.hits::cpu.data      1725054                       # number of ReadReq hits (Count)
system.cpu.dcache.ReadReq.hits::total         1725054                       # number of ReadReq hits (Count)
system.cpu.dcache.ReadReq.misses::cpu.data       237129                       # number of ReadReq misses (Count)
system.cpu.dcache.ReadReq.misses::total        237129                       # number of ReadReq misses (Count)
system.cpu.dcache.ReadReq.missLatency::cpu.data   7540384500                       # number of ReadReq miss ticks (Tick)
system.cpu.dcache.ReadReq.missLatency::total   7540384500                       # number of ReadReq miss ticks (Tick)
system.cpu.dcache.ReadReq.missLatencyDist::samples       237129                       # number of ReadReq miss ticks histogram (Tick)
system.cpu.dcache.ReadReq.missLatencyDist::mean    63.597320                       # number of ReadReq miss ticks histogram (Tick)
system.cpu.dcache.ReadReq.missLatencyDist::stdev    84.768167                       # number of ReadReq miss ticks histogram (Tick)
system.cpu.dcache.ReadReq.missLatencyDist::0-9         1087      0.46%      0.46% # number of ReadReq miss ticks histogram (Tick)
system.cpu.dcache.ReadReq.missLatencyDist::10-19        15971      6.74%      7.19% # number of ReadReq miss ticks histogram (Tick)
system.cpu.dcache.ReadReq.missLatencyDist::20-29       119140     50.24%     57.44% # number of ReadReq miss ticks histogram (Tick)
system.cpu.dcache.ReadReq.missLatencyDist::30-39        36967     15.59%     73.03% # number of ReadReq miss ticks histogram (Tick)
system.cpu.dcache.ReadReq.missLatencyDist::40-49         1480      0.62%     73.65% # number of ReadReq miss ticks histogram (Tick)
system.cpu.dcache.ReadReq.missLatencyDist::50-59         1705      0.72%     74.37% # number of ReadReq miss ticks histogram (Tick)
system.cpu.dcache.ReadReq.missLatencyDist::60-69          841      0.35%     74.72% # number of ReadReq miss ticks histogram (Tick)
system.cpu.dcache.ReadReq.missLatencyDist::70-79          853      0.36%     75.08% # number of ReadReq miss ticks histogram (Tick)
system.cpu.dcache.ReadReq.missLatencyDist::80-89         2183      0.92%     76.00% # number of ReadReq miss ticks histogram (Tick)
system.cpu.dcache.ReadReq.missLatencyDist::90-99         4481      1.89%     77.89% # number of ReadReq miss ticks histogram (Tick)
system.cpu.dcache.ReadReq.missLatencyDist::100-109         2818      1.19%     79.08% # number of ReadReq miss ticks histogram (Tick)
system.cpu.dcache.ReadReq.missLatencyDist::110-119         1837      0.77%     79.86% # number of ReadReq miss ticks histogram (Tick)
system.cpu.dcache.ReadReq.missLatencyDist::120-129         8356      3.52%     83.38% # number of ReadReq miss ticks histogram (Tick)
system.cpu.dcache.ReadReq.missLatencyDist::130-139         3077      1.30%     84.68% # number of ReadReq miss ticks histogram (Tick)
system.cpu.dcache.ReadReq.missLatencyDist::140-149         3630      1.53%     86.21% # number of ReadReq miss ticks histogram (Tick)
system.cpu.dcache.ReadReq.missLatencyDist::150-159         3324      1.40%     87.61% # number of ReadReq miss ticks histogram (Tick)
system.cpu.dcache.ReadReq.missLatencyDist::160-169         1605      0.68%     88.29% # number of ReadReq miss ticks histogram (Tick)
system.cpu.dcache.ReadReq.missLatencyDist::170-179         4854      2.05%     90.33% # number of ReadReq miss ticks histogram (Tick)
system.cpu.dcache.ReadReq.missLatencyDist::180-189         5040      2.13%     92.46% # number of ReadReq miss ticks histogram (Tick)
system.cpu.dcache.ReadReq.missLatencyDist::190-199         3541      1.49%     93.95% # number of ReadReq miss ticks histogram (Tick)
system.cpu.dcache.ReadReq.missLatencyDist::200-209         2411      1.02%     94.97% # number of ReadReq miss ticks histogram (Tick)
system.cpu.dcache.ReadReq.missLatencyDist::210-219         1519      0.64%     95.61% # number of ReadReq miss ticks histogram (Tick)
system.cpu.dcache.ReadReq.missLatencyDist::220-229         1000      0.42%     96.03% # number of ReadReq miss ticks histogram (Tick)
system.cpu.dcache.ReadReq.missLatencyDist::230-239          714      0.30%     96.33% # number of ReadReq miss ticks histogram (Tick)
system.cpu.dcache.ReadReq.missLatencyDist::240-249         1045      0.44%     96.77% # number of ReadReq miss ticks histogram (Tick)
system.cpu.dcache.ReadReq.missLatencyDist::250-259         1022      0.43%     97.20% # number of ReadReq miss ticks histogram (Tick)
system.cpu.dcache.ReadReq.missLatencyDist::260-269         1899      0.80%     98.01% # number of ReadReq miss ticks histogram (Tick)
system.cpu.dcache.ReadReq.missLatencyDist::270-279         1231      0.52%     98.52% # number of ReadReq miss ticks histogram (Tick)
system.cpu.dcache.ReadReq.missLatencyDist::280-289          841      0.35%     98.88% # number of ReadReq miss ticks histogram (Tick)
system.cpu.dcache.ReadReq.missLatencyDist::290-299          515      0.22%     99.10% # number of ReadReq miss ticks histogram (Tick)
system.cpu.dcache.ReadReq.missLatencyDist::300-309          307      0.13%     99.23% # number of ReadReq miss ticks histogram (Tick)
system.cpu.dcache.ReadReq.missLatencyDist::310-319          183      0.08%     99.30% # number of ReadReq miss ticks histogram (Tick)
system.cpu.dcache.ReadReq.missLatencyDist::320-329           58      0.02%     99.33% # number of ReadReq miss ticks histogram (Tick)
system.cpu.dcache.ReadReq.missLatencyDist::330-339           28      0.01%     99.34% # number of ReadReq miss ticks histogram (Tick)
system.cpu.dcache.ReadReq.missLatencyDist::340-349          220      0.09%     99.43% # number of ReadReq miss ticks histogram (Tick)
system.cpu.dcache.ReadReq.missLatencyDist::350-359          137      0.06%     99.49% # number of ReadReq miss ticks histogram (Tick)
system.cpu.dcache.ReadReq.missLatencyDist::360-369           58      0.02%     99.51% # number of ReadReq miss ticks histogram (Tick)
system.cpu.dcache.ReadReq.missLatencyDist::370-379           12      0.01%     99.52% # number of ReadReq miss ticks histogram (Tick)
system.cpu.dcache.ReadReq.missLatencyDist::380-389            5      0.00%     99.52% # number of ReadReq miss ticks histogram (Tick)
system.cpu.dcache.ReadReq.missLatencyDist::390-399            1      0.00%     99.52% # number of ReadReq miss ticks histogram (Tick)
system.cpu.dcache.ReadReq.missLatencyDist::400-409            2      0.00%     99.52% # number of ReadReq miss ticks histogram (Tick)
system.cpu.dcache.ReadReq.missLatencyDist::410-419            2      0.00%     99.52% # number of ReadReq miss ticks histogram (Tick)
system.cpu.dcache.ReadReq.missLatencyDist::420-429            6      0.00%     99.53% # number of ReadReq miss ticks histogram (Tick)
system.cpu.dcache.ReadReq.missLatencyDist::430-439           25      0.01%     99.54% # number of ReadReq miss ticks histogram (Tick)
system.cpu.dcache.ReadReq.missLatencyDist::440-449           22      0.01%     99.55% # number of ReadReq miss ticks histogram (Tick)
system.cpu.dcache.ReadReq.missLatencyDist::480-489            2      0.00%     99.55% # number of ReadReq miss ticks histogram (Tick)
system.cpu.dcache.ReadReq.missLatencyDist::490-499            2      0.00%     99.55% # number of ReadReq miss ticks histogram (Tick)
system.cpu.dcache.ReadReq.missLatencyDist::520-529            4      0.00%     99.55% # number of ReadReq miss ticks histogram (Tick)
system.cpu.dcache.ReadReq.missLatencyDist::530-539            3      0.00%     99.55% # number of ReadReq miss ticks histogram (Tick)
system.cpu.dcache.ReadReq.missLatencyDist::540-549            3      0.00%     99.55% # number of ReadReq miss ticks histogram (Tick)
system.cpu.dcache.ReadReq.missLatencyDist::550-559            1      0.00%     99.55% # number of ReadReq miss ticks histogram (Tick)
system.cpu.dcache.ReadReq.missLatencyDist::560-569            2      0.00%     99.55% # number of ReadReq miss ticks histogram (Tick)
system.cpu.dcache.ReadReq.missLatencyDist::570-579            2      0.00%     99.55% # number of ReadReq miss ticks histogram (Tick)
system.cpu.dcache.ReadReq.missLatencyDist::580-589            1      0.00%     99.55% # number of ReadReq miss ticks histogram (Tick)
system.cpu.dcache.ReadReq.missLatencyDist::620-629            8      0.00%     99.56% # number of ReadReq miss ticks histogram (Tick)
system.cpu.dcache.ReadReq.missLatencyDist::630-639            5      0.00%     99.56% # number of ReadReq miss ticks histogram (Tick)
system.cpu.dcache.ReadReq.missLatencyDist::640-649           11      0.00%     99.56% # number of ReadReq miss ticks histogram (Tick)
system.cpu.dcache.ReadReq.missLatencyDist::650-659           10      0.00%     99.57% # number of ReadReq miss ticks histogram (Tick)
system.cpu.dcache.ReadReq.missLatencyDist::660-669            9      0.00%     99.57% # number of ReadReq miss ticks histogram (Tick)
system.cpu.dcache.ReadReq.missLatencyDist::670-679           21      0.01%     99.58% # number of ReadReq miss ticks histogram (Tick)
system.cpu.dcache.ReadReq.missLatencyDist::680-689           13      0.01%     99.59% # number of ReadReq miss ticks histogram (Tick)
system.cpu.dcache.ReadReq.missLatencyDist::690-699           18      0.01%     99.59% # number of ReadReq miss ticks histogram (Tick)
system.cpu.dcache.ReadReq.missLatencyDist::700-709           43      0.02%     99.61% # number of ReadReq miss ticks histogram (Tick)
system.cpu.dcache.ReadReq.missLatencyDist::710-719           35      0.01%     99.63% # number of ReadReq miss ticks histogram (Tick)
system.cpu.dcache.ReadReq.missLatencyDist::720-729           25      0.01%     99.64% # number of ReadReq miss ticks histogram (Tick)
system.cpu.dcache.ReadReq.missLatencyDist::730-739           26      0.01%     99.65% # number of ReadReq miss ticks histogram (Tick)
system.cpu.dcache.ReadReq.missLatencyDist::740-749           20      0.01%     99.66% # number of ReadReq miss ticks histogram (Tick)
system.cpu.dcache.ReadReq.missLatencyDist::750-759           48      0.02%     99.68% # number of ReadReq miss ticks histogram (Tick)
system.cpu.dcache.ReadReq.missLatencyDist::760-769           32      0.01%     99.69% # number of ReadReq miss ticks histogram (Tick)
system.cpu.dcache.ReadReq.missLatencyDist::770-779           39      0.02%     99.71% # number of ReadReq miss ticks histogram (Tick)
system.cpu.dcache.ReadReq.missLatencyDist::780-789           37      0.02%     99.72% # number of ReadReq miss ticks histogram (Tick)
system.cpu.dcache.ReadReq.missLatencyDist::790-799           40      0.02%     99.74% # number of ReadReq miss ticks histogram (Tick)
system.cpu.dcache.ReadReq.missLatencyDist::800-809           43      0.02%     99.76% # number of ReadReq miss ticks histogram (Tick)
system.cpu.dcache.ReadReq.missLatencyDist::810-819           43      0.02%     99.78% # number of ReadReq miss ticks histogram (Tick)
system.cpu.dcache.ReadReq.missLatencyDist::820-829           41      0.02%     99.79% # number of ReadReq miss ticks histogram (Tick)
system.cpu.dcache.ReadReq.missLatencyDist::830-839           33      0.01%     99.81% # number of ReadReq miss ticks histogram (Tick)
system.cpu.dcache.ReadReq.missLatencyDist::840-849           40      0.02%     99.82% # number of ReadReq miss ticks histogram (Tick)
system.cpu.dcache.ReadReq.missLatencyDist::850-859           39      0.02%     99.84% # number of ReadReq miss ticks histogram (Tick)
system.cpu.dcache.ReadReq.missLatencyDist::860-869           27      0.01%     99.85% # number of ReadReq miss ticks histogram (Tick)
system.cpu.dcache.ReadReq.missLatencyDist::870-879           44      0.02%     99.87% # number of ReadReq miss ticks histogram (Tick)
system.cpu.dcache.ReadReq.missLatencyDist::880-889           22      0.01%     99.88% # number of ReadReq miss ticks histogram (Tick)
system.cpu.dcache.ReadReq.missLatencyDist::890-899           36      0.02%     99.90% # number of ReadReq miss ticks histogram (Tick)
system.cpu.dcache.ReadReq.missLatencyDist::900-909           28      0.01%     99.91% # number of ReadReq miss ticks histogram (Tick)
system.cpu.dcache.ReadReq.missLatencyDist::910-919           32      0.01%     99.92% # number of ReadReq miss ticks histogram (Tick)
system.cpu.dcache.ReadReq.missLatencyDist::920-929           13      0.01%     99.93% # number of ReadReq miss ticks histogram (Tick)
system.cpu.dcache.ReadReq.missLatencyDist::930-939           17      0.01%     99.93% # number of ReadReq miss ticks histogram (Tick)
system.cpu.dcache.ReadReq.missLatencyDist::940-949           11      0.00%     99.94% # number of ReadReq miss ticks histogram (Tick)
system.cpu.dcache.ReadReq.missLatencyDist::950-959           23      0.01%     99.95% # number of ReadReq miss ticks histogram (Tick)
system.cpu.dcache.ReadReq.missLatencyDist::960-969           10      0.00%     99.95% # number of ReadReq miss ticks histogram (Tick)
system.cpu.dcache.ReadReq.missLatencyDist::970-979           18      0.01%     99.96% # number of ReadReq miss ticks histogram (Tick)
system.cpu.dcache.ReadReq.missLatencyDist::980-989           19      0.01%     99.97% # number of ReadReq miss ticks histogram (Tick)
system.cpu.dcache.ReadReq.missLatencyDist::990-999           13      0.01%     99.97% # number of ReadReq miss ticks histogram (Tick)
system.cpu.dcache.ReadReq.missLatencyDist::overflows           64      0.03%    100.00% # number of ReadReq miss ticks histogram (Tick)
system.cpu.dcache.ReadReq.missLatencyDist::min_value            6                       # number of ReadReq miss ticks histogram (Tick)
system.cpu.dcache.ReadReq.missLatencyDist::max_value         1142                       # number of ReadReq miss ticks histogram (Tick)
system.cpu.dcache.ReadReq.missLatencyDist::total       237129                       # number of ReadReq miss ticks histogram (Tick)
system.cpu.dcache.ReadReq.accesses::cpu.data      1962183                       # number of ReadReq accesses(hits+misses) (Count)
system.cpu.dcache.ReadReq.accesses::total      1962183                       # number of ReadReq accesses(hits+misses) (Count)
system.cpu.dcache.ReadReq.missRate::cpu.data     0.120850                       # miss rate for ReadReq accesses (Ratio)
system.cpu.dcache.ReadReq.missRate::total     0.120850                       # miss rate for ReadReq accesses (Ratio)
system.cpu.dcache.ReadReq.avgMissLatency::cpu.data 31798.660223                       # average ReadReq miss latency ((Tick/Count))
system.cpu.dcache.ReadReq.avgMissLatency::total 31798.660223                       # average ReadReq miss latency ((Tick/Count))
system.cpu.dcache.ReadReq.mshrHits::cpu.data       145508                       # number of ReadReq MSHR hits (Count)
system.cpu.dcache.ReadReq.mshrHits::total       145508                       # number of ReadReq MSHR hits (Count)
system.cpu.dcache.ReadReq.mshrMisses::cpu.data        91621                       # number of ReadReq MSHR misses (Count)
system.cpu.dcache.ReadReq.mshrMisses::total        91621                       # number of ReadReq MSHR misses (Count)
system.cpu.dcache.ReadReq.mshrMissLatency::cpu.data   2893543500                       # number of ReadReq MSHR miss ticks (Tick)
system.cpu.dcache.ReadReq.mshrMissLatency::total   2893543500                       # number of ReadReq MSHR miss ticks (Tick)
system.cpu.dcache.ReadReq.mshrMissRate::cpu.data     0.046693                       # mshr miss rate for ReadReq accesses (Ratio)
system.cpu.dcache.ReadReq.mshrMissRate::total     0.046693                       # mshr miss rate for ReadReq accesses (Ratio)
system.cpu.dcache.ReadReq.avgMshrMissLatency::cpu.data 31581.662501                       # average ReadReq mshr miss latency ((Tick/Count))
system.cpu.dcache.ReadReq.avgMshrMissLatency::total 31581.662501                       # average ReadReq mshr miss latency ((Tick/Count))
system.cpu.dcache.SwapReq.hits::cpu.data           16                       # number of SwapReq hits (Count)
system.cpu.dcache.SwapReq.hits::total              16                       # number of SwapReq hits (Count)
system.cpu.dcache.SwapReq.accesses::cpu.data           16                       # number of SwapReq accesses(hits+misses) (Count)
system.cpu.dcache.SwapReq.accesses::total           16                       # number of SwapReq accesses(hits+misses) (Count)
system.cpu.dcache.WriteReq.hits::cpu.data      1094003                       # number of WriteReq hits (Count)
system.cpu.dcache.WriteReq.hits::total        1094003                       # number of WriteReq hits (Count)
system.cpu.dcache.WriteReq.misses::cpu.data        12147                       # number of WriteReq misses (Count)
system.cpu.dcache.WriteReq.misses::total        12147                       # number of WriteReq misses (Count)
system.cpu.dcache.WriteReq.missLatency::cpu.data    151349500                       # number of WriteReq miss ticks (Tick)
system.cpu.dcache.WriteReq.missLatency::total    151349500                       # number of WriteReq miss ticks (Tick)
system.cpu.dcache.WriteReq.missLatencyDist::samples        12147                       # number of WriteReq miss ticks histogram (Tick)
system.cpu.dcache.WriteReq.missLatencyDist::mean    24.919651                       # number of WriteReq miss ticks histogram (Tick)
system.cpu.dcache.WriteReq.missLatencyDist::stdev    33.167144                       # number of WriteReq miss ticks histogram (Tick)
system.cpu.dcache.WriteReq.missLatencyDist::0-9            8      0.07%      0.07% # number of WriteReq miss ticks histogram (Tick)
system.cpu.dcache.WriteReq.missLatencyDist::10-19         4830     39.76%     39.83% # number of WriteReq miss ticks histogram (Tick)
system.cpu.dcache.WriteReq.missLatencyDist::20-29         6680     54.99%     94.82% # number of WriteReq miss ticks histogram (Tick)
system.cpu.dcache.WriteReq.missLatencyDist::30-39            1      0.01%     94.83% # number of WriteReq miss ticks histogram (Tick)
system.cpu.dcache.WriteReq.missLatencyDist::40-49          195      1.61%     96.44% # number of WriteReq miss ticks histogram (Tick)
system.cpu.dcache.WriteReq.missLatencyDist::50-59            5      0.04%     96.48% # number of WriteReq miss ticks histogram (Tick)
system.cpu.dcache.WriteReq.missLatencyDist::60-69            1      0.01%     96.48% # number of WriteReq miss ticks histogram (Tick)
system.cpu.dcache.WriteReq.missLatencyDist::70-79           17      0.14%     96.62% # number of WriteReq miss ticks histogram (Tick)
system.cpu.dcache.WriteReq.missLatencyDist::80-89            1      0.01%     96.63% # number of WriteReq miss ticks histogram (Tick)
system.cpu.dcache.WriteReq.missLatencyDist::90-99            5      0.04%     96.67% # number of WriteReq miss ticks histogram (Tick)
system.cpu.dcache.WriteReq.missLatencyDist::100-109           35      0.29%     96.96% # number of WriteReq miss ticks histogram (Tick)
system.cpu.dcache.WriteReq.missLatencyDist::110-119           26      0.21%     97.18% # number of WriteReq miss ticks histogram (Tick)
system.cpu.dcache.WriteReq.missLatencyDist::120-129          223      1.84%     99.01% # number of WriteReq miss ticks histogram (Tick)
system.cpu.dcache.WriteReq.missLatencyDist::130-139            2      0.02%     99.03% # number of WriteReq miss ticks histogram (Tick)
system.cpu.dcache.WriteReq.missLatencyDist::140-149           23      0.19%     99.22% # number of WriteReq miss ticks histogram (Tick)
system.cpu.dcache.WriteReq.missLatencyDist::150-159            3      0.02%     99.24% # number of WriteReq miss ticks histogram (Tick)
system.cpu.dcache.WriteReq.missLatencyDist::170-179           56      0.46%     99.70% # number of WriteReq miss ticks histogram (Tick)
system.cpu.dcache.WriteReq.missLatencyDist::180-189            4      0.03%     99.74% # number of WriteReq miss ticks histogram (Tick)
system.cpu.dcache.WriteReq.missLatencyDist::190-199            7      0.06%     99.79% # number of WriteReq miss ticks histogram (Tick)
system.cpu.dcache.WriteReq.missLatencyDist::250-259            1      0.01%     99.80% # number of WriteReq miss ticks histogram (Tick)
system.cpu.dcache.WriteReq.missLatencyDist::300-309            1      0.01%     99.81% # number of WriteReq miss ticks histogram (Tick)
system.cpu.dcache.WriteReq.missLatencyDist::360-369            1      0.01%     99.82% # number of WriteReq miss ticks histogram (Tick)
system.cpu.dcache.WriteReq.missLatencyDist::370-379            1      0.01%     99.83% # number of WriteReq miss ticks histogram (Tick)
system.cpu.dcache.WriteReq.missLatencyDist::440-449            1      0.01%     99.84% # number of WriteReq miss ticks histogram (Tick)
system.cpu.dcache.WriteReq.missLatencyDist::450-459            1      0.01%     99.84% # number of WriteReq miss ticks histogram (Tick)
system.cpu.dcache.WriteReq.missLatencyDist::490-499            1      0.01%     99.85% # number of WriteReq miss ticks histogram (Tick)
system.cpu.dcache.WriteReq.missLatencyDist::510-519            2      0.02%     99.87% # number of WriteReq miss ticks histogram (Tick)
system.cpu.dcache.WriteReq.missLatencyDist::520-529            1      0.01%     99.88% # number of WriteReq miss ticks histogram (Tick)
system.cpu.dcache.WriteReq.missLatencyDist::560-569            2      0.02%     99.89% # number of WriteReq miss ticks histogram (Tick)
system.cpu.dcache.WriteReq.missLatencyDist::590-599            2      0.02%     99.91% # number of WriteReq miss ticks histogram (Tick)
system.cpu.dcache.WriteReq.missLatencyDist::630-639            1      0.01%     99.92% # number of WriteReq miss ticks histogram (Tick)
system.cpu.dcache.WriteReq.missLatencyDist::640-649            2      0.02%     99.93% # number of WriteReq miss ticks histogram (Tick)
system.cpu.dcache.WriteReq.missLatencyDist::670-679            1      0.01%     99.94% # number of WriteReq miss ticks histogram (Tick)
system.cpu.dcache.WriteReq.missLatencyDist::710-719            2      0.02%     99.96% # number of WriteReq miss ticks histogram (Tick)
system.cpu.dcache.WriteReq.missLatencyDist::720-729            1      0.01%     99.97% # number of WriteReq miss ticks histogram (Tick)
system.cpu.dcache.WriteReq.missLatencyDist::770-779            1      0.01%     99.98% # number of WriteReq miss ticks histogram (Tick)
system.cpu.dcache.WriteReq.missLatencyDist::780-789            1      0.01%     99.98% # number of WriteReq miss ticks histogram (Tick)
system.cpu.dcache.WriteReq.missLatencyDist::790-799            1      0.01%     99.99% # number of WriteReq miss ticks histogram (Tick)
system.cpu.dcache.WriteReq.missLatencyDist::870-879            1      0.01%    100.00% # number of WriteReq miss ticks histogram (Tick)
system.cpu.dcache.WriteReq.missLatencyDist::min_value            6                       # number of WriteReq miss ticks histogram (Tick)
system.cpu.dcache.WriteReq.missLatencyDist::max_value          874                       # number of WriteReq miss ticks histogram (Tick)
system.cpu.dcache.WriteReq.missLatencyDist::total        12147                       # number of WriteReq miss ticks histogram (Tick)
system.cpu.dcache.WriteReq.accesses::cpu.data      1106150                       # number of WriteReq accesses(hits+misses) (Count)
system.cpu.dcache.WriteReq.accesses::total      1106150                       # number of WriteReq accesses(hits+misses) (Count)
system.cpu.dcache.WriteReq.missRate::cpu.data     0.010981                       # miss rate for WriteReq accesses (Ratio)
system.cpu.dcache.WriteReq.missRate::total     0.010981                       # miss rate for WriteReq accesses (Ratio)
system.cpu.dcache.WriteReq.avgMissLatency::cpu.data 12459.825471                       # average WriteReq miss latency ((Tick/Count))
system.cpu.dcache.WriteReq.avgMissLatency::total 12459.825471                       # average WriteReq miss latency ((Tick/Count))
system.cpu.dcache.WriteReq.mshrHits::cpu.data        10338                       # number of WriteReq MSHR hits (Count)
system.cpu.dcache.WriteReq.mshrHits::total        10338                       # number of WriteReq MSHR hits (Count)
system.cpu.dcache.WriteReq.mshrMisses::cpu.data         1809                       # number of WriteReq MSHR misses (Count)
system.cpu.dcache.WriteReq.mshrMisses::total         1809                       # number of WriteReq MSHR misses (Count)
system.cpu.dcache.WriteReq.mshrUncacheable::cpu.data            2                       # number of WriteReq MSHR uncacheable (Count)
system.cpu.dcache.WriteReq.mshrUncacheable::total            2                       # number of WriteReq MSHR uncacheable (Count)
system.cpu.dcache.WriteReq.mshrMissLatency::cpu.data     33828500                       # number of WriteReq MSHR miss ticks (Tick)
system.cpu.dcache.WriteReq.mshrMissLatency::total     33828500                       # number of WriteReq MSHR miss ticks (Tick)
system.cpu.dcache.WriteReq.mshrMissRate::cpu.data     0.001635                       # mshr miss rate for WriteReq accesses (Ratio)
system.cpu.dcache.WriteReq.mshrMissRate::total     0.001635                       # mshr miss rate for WriteReq accesses (Ratio)
system.cpu.dcache.WriteReq.avgMshrMissLatency::cpu.data 18700.110558                       # average WriteReq mshr miss latency ((Tick/Count))
system.cpu.dcache.WriteReq.avgMshrMissLatency::total 18700.110558                       # average WriteReq mshr miss latency ((Tick/Count))
system.cpu.dcache.power_state.pwrStateResidencyTicks::UNDEFINED   3476338000                       # Cumulative time (in ticks) in various power states (Tick)
system.cpu.dcache.tags.tagsInUse          2020.859175                       # Average ticks per tags in use ((Tick/Count))
system.cpu.dcache.tags.totalRefs              2791969                       # Total number of references to valid blocks. (Count)
system.cpu.dcache.tags.sampledRefs              91382                       # Sample count of references to valid blocks. (Count)
system.cpu.dcache.tags.avgRefs              30.552724                       # Average number of references to valid blocks. ((Count/Count))
system.cpu.dcache.tags.warmupTick              166000                       # The tick when the warmup percentage was hit. (Tick)
system.cpu.dcache.tags.occupancies::cpu.data  2020.859175                       # Average occupied blocks per tick, per requestor ((Count/Tick))
system.cpu.dcache.tags.avgOccs::cpu.data     0.986748                       # Average percentage of cache occupancy ((Ratio/Tick))
system.cpu.dcache.tags.avgOccs::total        0.986748                       # Average percentage of cache occupancy ((Ratio/Tick))
system.cpu.dcache.tags.occupanciesTaskId::1024         2048                       # Occupied blocks per task id (Count)
system.cpu.dcache.tags.ageTaskId_1024::0          111                       # Occupied blocks per task id, per block age (Count)
system.cpu.dcache.tags.ageTaskId_1024::1          976                       # Occupied blocks per task id, per block age (Count)
system.cpu.dcache.tags.ageTaskId_1024::2          961                       # Occupied blocks per task id, per block age (Count)
system.cpu.dcache.tags.ratioOccsTaskId::1024            1                       # Ratio of occupied blocks and all blocks, per task id (Ratio)
system.cpu.dcache.tags.tagAccesses           24640222                       # Number of tag accesses (Count)
system.cpu.dcache.tags.dataAccesses          24640222                       # Number of data accesses (Count)
system.cpu.dcache.tags.power_state.pwrStateResidencyTicks::UNDEFINED   3476338000                       # Cumulative time (in ticks) in various power states (Tick)
system.cpu.decode.idleCycles                   146928                       # Number of cycles decode is idle (Cycle)
system.cpu.decode.blockedCycles               4949505                       # Number of cycles decode is blocked (Cycle)
system.cpu.decode.runCycles                   1571453                       # Number of cycles decode is running (Cycle)
system.cpu.decode.unblockCycles                246435                       # Number of cycles decode is unblocking (Cycle)
system.cpu.decode.squashCycles                  15520                       # Number of cycles decode is squashing (Cycle)
system.cpu.decode.branchResolved               750303                       # Number of times decode resolved a branch (Count)
system.cpu.decode.branchMispred                   169                       # Number of times decode detected a branch misprediction (Count)
system.cpu.decode.decodedInsts               11397530                       # Number of instructions handled by decode (Count)
system.cpu.decode.squashedInsts                   754                       # Number of squashed instructions handled by decode (Count)
system.cpu.decode.mispredictedByPC                  0                       # Number of instructions that mispredicted due to pc (Count)
system.cpu.decode.mispredictedByNPC                 0                       # Number of instructions that mispredicted due to npc (Count)
system.cpu.dtb_walker_cache.demandHits::cpu.mmu.dtb.walker          870                       # number of demand (read+write) hits (Count)
system.cpu.dtb_walker_cache.demandHits::total          870                       # number of demand (read+write) hits (Count)
system.cpu.dtb_walker_cache.overallHits::cpu.mmu.dtb.walker          870                       # number of overall hits (Count)
system.cpu.dtb_walker_cache.overallHits::total          870                       # number of overall hits (Count)
[...]
system.mem_ctrls.dram.bytesPerActivate::0-127         3153     12.31%     12.31% # Bytes accessed per row activation (Byte)
system.mem_ctrls.dram.bytesPerActivate::128-255         2507      9.79%     22.09% # Bytes accessed per row activation (Byte)
system.mem_ctrls.dram.bytesPerActivate::256-383         2022      7.89%     29.99% # Bytes accessed per row activation (Byte)
system.mem_ctrls.dram.bytesPerActivate::384-511         1400      5.46%     35.45% # Bytes accessed per row activation (Byte)
system.mem_ctrls.dram.bytesPerActivate::512-639          999      3.90%     39.35% # Bytes accessed per row activation (Byte)
system.mem_ctrls.dram.bytesPerActivate::640-767          914      3.57%     42.92% # Bytes accessed per row activation (Byte)
system.mem_ctrls.dram.bytesPerActivate::768-895          696      2.72%     45.64% # Bytes accessed per row activation (Byte)
system.mem_ctrls.dram.bytesPerActivate::896-1023          769      3.00%     48.64% # Bytes accessed per row activation (Byte)
system.mem_ctrls.dram.bytesPerActivate::1024-1151        13158     51.36%    100.00% # Bytes accessed per row activation (Byte)
system.mem_ctrls.dram.bytesPerActivate::total        25618                       # Bytes accessed per row activation (Byte)
system.mem_ctrls.dram.bytesRead               8867648                       # Total bytes read (Byte)
system.mem_ctrls.dram.bytesWritten            8771072                       # Total bytes written (Byte)
system.mem_ctrls.dram.avgRdBW             2328.801908                       # Average DRAM read bandwidth in MiBytes/s ((Byte/Second))
system.mem_ctrls.dram.avgWrBW             2303.439334                       # Average DRAM write bandwidth in MiBytes/s ((Byte/Second))
system.mem_ctrls.dram.peakBW                 19207.00                       # Theoretical peak bandwidth in MiByte/s ((Byte/Second))
system.mem_ctrls.dram.busUtil                   24.12                       # Data bus utilization in percentage (Ratio)
system.mem_ctrls.dram.busUtilRead               12.12                       # Data bus utilization in percentage for reads (Ratio)
system.mem_ctrls.dram.busUtilWrite              11.99                       # Data bus utilization in percentage for writes (Ratio)
system.mem_ctrls.dram.pageHitRate               90.70                       # Row buffer hit rate, read and write combined (Ratio)
system.mem_ctrls.dram.power_state.pwrStateResidencyTicks::UNDEFINED   3807815500                       # Cumulative time (in ticks) in various power states (Tick)
system.mem_ctrls.dram.rank0.actEnergy    40051013.184000                       # Energy for activate commands per rank (pJ) (Joule)
system.mem_ctrls.dram.rank0.preEnergy    53247308.553600                       # Energy for precharge commands per rank (pJ) (Joule)
system.mem_ctrls.dram.rank0.readEnergy   282525680.505600                       # Energy for read commands per rank (pJ) (Joule)
system.mem_ctrls.dram.rank0.writeEnergy  260760693.984000                       # Energy for write commands per rank (pJ) (Joule)
system.mem_ctrls.dram.rank0.refreshEnergy 677449659.700803                       # Energy for refresh commands per rank (pJ) (Joule)
system.mem_ctrls.dram.rank0.actBackEnergy 3070042923.427193                       # Energy for active background per rank (pJ) (Joule)
system.mem_ctrls.dram.rank0.preBackEnergy 126838876.147200                       # Energy for precharge background per rank (pJ) (Joule)
system.mem_ctrls.dram.rank0.actPowerDownEnergy            0                       # Energy for active power-down per rank (pJ) (Joule)
system.mem_ctrls.dram.rank0.prePowerDownEnergy            0                       # Energy for precharge power-down per rank (pJ) (Joule)
system.mem_ctrls.dram.rank0.selfRefreshEnergy            0                       # Energy for self refresh per rank (pJ) (Joule)
system.mem_ctrls.dram.rank0.totalEnergy  4510916155.502395                       # Total energy per rank (pJ) (Joule)
system.mem_ctrls.dram.rank0.averagePower  1184.646723                       # Core power per rank (mW) (Watt)
system.mem_ctrls.dram.rank0.totalIdleTime            0                       # Total Idle time Per DRAM Rank (Tick)
system.mem_ctrls.dram.rank0.pwrStateTime::IDLE    176092354                       # Time in different power states (Tick)
system.mem_ctrls.dram.rank0.pwrStateTime::REF    171150000                       # Time in different power states (Tick)
system.mem_ctrls.dram.rank0.pwrStateTime::SREF            0                       # Time in different power states (Tick)
system.mem_ctrls.dram.rank0.pwrStateTime::PRE_PDN            0                       # Time in different power states (Tick)
system.mem_ctrls.dram.rank0.pwrStateTime::ACT   3460573146                       # Time in different power states (Tick)
system.mem_ctrls.dram.rank0.pwrStateTime::ACT_PDN            0                       # Time in different power states (Tick)
system.mem_ctrls.dram.rank1.actEnergy    39851413.056000                       # Energy for activate commands per rank (pJ) (Joule)
system.mem_ctrls.dram.rank1.preEnergy    52973650.060800                       # Energy for precharge commands per rank (pJ) (Joule)
system.mem_ctrls.dram.rank1.readEnergy   300288956.352000                       # Energy for read commands per rank (pJ) (Joule)
system.mem_ctrls.dram.rank1.writeEnergy  254333665.824000                       # Energy for write commands per rank (pJ) (Joule)
system.mem_ctrls.dram.rank1.refreshEnergy 677449659.700803                       # Energy for refresh commands per rank (pJ) (Joule)
system.mem_ctrls.dram.rank1.actBackEnergy 3128333309.942395                       # Energy for active background per rank (pJ) (Joule)
system.mem_ctrls.dram.rank1.preBackEnergy 82050782.553600                       # Energy for precharge background per rank (pJ) (Joule)
system.mem_ctrls.dram.rank1.actPowerDownEnergy            0                       # Energy for active power-down per rank (pJ) (Joule)
system.mem_ctrls.dram.rank1.prePowerDownEnergy            0                       # Energy for precharge power-down per rank (pJ) (Joule)
system.mem_ctrls.dram.rank1.selfRefreshEnergy            0                       # Energy for self refresh per rank (pJ) (Joule)
system.mem_ctrls.dram.rank1.totalEnergy  4535281437.489601                       # Total energy per rank (pJ) (Joule)
system.mem_ctrls.dram.rank1.averagePower  1191.045479                       # Core power per rank (mW) (Watt)
system.mem_ctrls.dram.rank1.totalIdleTime            0                       # Total Idle time Per DRAM Rank (Tick)
system.mem_ctrls.dram.rank1.pwrStateTime::IDLE    108486518                       # Time in different power states (Tick)
system.mem_ctrls.dram.rank1.pwrStateTime::REF    171150000                       # Time in different power states (Tick)
system.mem_ctrls.dram.rank1.pwrStateTime::SREF            0                       # Time in different power states (Tick)
system.mem_ctrls.dram.rank1.pwrStateTime::PRE_PDN            0                       # Time in different power states (Tick)
system.mem_ctrls.dram.rank1.pwrStateTime::ACT   3528178982                       # Time in different power states (Tick)
system.mem_ctrls.dram.rank1.pwrStateTime::ACT_PDN            0                       # Time in different power states (Tick)
system.mem_ctrls.power_state.pwrStateResidencyTicks::UNDEFINED   3807815500                       # Cumulative time (in ticks) in various power states (Tick)
system.membus.transDist::ReadResp               89739                       # Transaction distribution (Count)
system.membus.transDist::WritebackDirty         76062                       # Transaction distribution (Count)
system.membus.transDist::WritebackClean         60981                       # Transaction distribution (Count)
system.membus.transDist::CleanEvict               133                       # Transaction distribution (Count)
system.membus.transDist::ReadExReq              48851                       # Transaction distribution (Count)
system.membus.transDist::ReadExResp             48851                       # Transaction distribution (Count)
system.membus.transDist::ReadCleanReq           89741                       # Transaction distribution (Count)
system.membus.transDist::InvalidateReq             65                       # Transaction distribution (Count)
system.membus.pktCount_system.l2.mem_side_port::system.mem_ctrls.port       414423                       # Packet count per connected requestor and responder (Count)
system.membus.pktCount_system.l2.mem_side_port::total       414423                       # Packet count per connected requestor and responder (Count)
system.membus.pktCount::total                  414423                       # Packet count per connected requestor and responder (Count)
system.membus.pktSize_system.l2.mem_side_port::system.mem_ctrls.port     17640512                       # Cumulative packet size per connected requestor and responder (Byte)
system.membus.pktSize_system.l2.mem_side_port::total     17640512                       # Cumulative packet size per connected requestor and responder (Byte)
system.membus.pktSize::total                 17640512                       # Cumulative packet size per connected requestor and responder (Byte)
system.membus.snoops                                0                       # Total snoops (Count)
system.membus.snoopTraffic                          0                       # Total snoop traffic (Byte)
system.membus.snoopFanout::samples             138657                       # Request fanout histogram (Count)
system.membus.snoopFanout::mean                     0                       # Request fanout histogram (Count)
system.membus.snoopFanout::stdev                    0                       # Request fanout histogram (Count)
system.membus.snoopFanout::underflows               0      0.00%      0.00% # Request fanout histogram (Count)
system.membus.snoopFanout::0                   138657    100.00%    100.00% # Request fanout histogram (Count)
system.membus.snoopFanout::1                        0      0.00%    100.00% # Request fanout histogram (Count)
system.membus.snoopFanout::2                        0      0.00%    100.00% # Request fanout histogram (Count)
system.membus.snoopFanout::overflows                0      0.00%    100.00% # Request fanout histogram (Count)
system.membus.snoopFanout::min_value                0                       # Request fanout histogram (Count)
system.membus.snoopFanout::max_value                0                       # Request fanout histogram (Count)
system.membus.snoopFanout::total               138657                       # Request fanout histogram (Count)
system.membus.badaddr_responder.power_state.pwrStateResidencyTicks::UNDEFINED   3807815500                       # Cumulative time (in ticks) in various power states (Tick)
system.membus.power_state.pwrStateResidencyTicks::UNDEFINED   3807815500                       # Cumulative time (in ticks) in various power states (Tick)
system.membus.reqLayer1.occupancy           842950140                       # Layer occupancy (ticks) (Tick)
system.membus.reqLayer1.utilization               0.2                       # Layer utilization (Ratio)
system.membus.respLayer2.occupancy          723672822                       # Layer occupancy (ticks) (Tick)
system.membus.respLayer2.utilization              0.2                       # Layer utilization (Ratio)
system.membus.snoop_filter.totRequests         275841                       # Total number of requests made to the snoop filter. (Count)
system.membus.snoop_filter.hitSingleRequests       137255                       # Number of requests hitting in the snoop filter with a single holder of the requested data. (Count)
system.membus.snoop_filter.hitMultiRequests            0                       # Number of requests hitting in the snoop filter with multiple (>1) holders of the requested data. (Count)
system.membus.snoop_filter.totSnoops                0                       # Total number of snoops made to the snoop filter. (Count)
system.membus.snoop_filter.hitSingleSnoops            0                       # Number of snoops hitting in the snoop filter with a single holder of the requested data. (Count)
system.membus.snoop_filter.hitMultiSnoops            0                       # Number of snoops hitting in the snoop filter with multiple (>1) holders of the requested data. (Count)
system.mmcs.power_state.pwrStateResidencyTicks::UNDEFINED   3807815500                       # Cumulative time (in ticks) in various power states (Tick)
system.tol2bus.transDist::ReadResp             173281                       # Transaction distribution (Count)
system.tol2bus.transDist::WritebackDirty       256519                       # Transaction distribution (Count)
system.tol2bus.transDist::WritebackClean       167915                       # Transaction distribution (Count)
system.tol2bus.transDist::CleanEvict              205                       # Transaction distribution (Count)
system.tol2bus.transDist::ReadExReq            105850                       # Transaction distribution (Count)
system.tol2bus.transDist::ReadExResp           105850                       # Transaction distribution (Count)
system.tol2bus.transDist::ReadCleanReq             82                       # Transaction distribution (Count)
system.tol2bus.transDist::ReadSharedReq        173202                       # Transaction distribution (Count)
system.tol2bus.transDist::InvalidateReq          8546                       # Transaction distribution (Count)
system.tol2bus.transDist::InvalidateResp         8546                       # Transaction distribution (Count)
system.tol2bus.pktCount_system.cpu.icache.mem_side_port::system.l2.cpu_side_port          164                       # Packet count per connected requestor and responder (Count)
system.tol2bus.pktCount_system.cpu.dcache.mem_side_port::system.l2.cpu_side_port       862173                       # Packet count per connected requestor and responder (Count)
system.tol2bus.pktCount_system.cpu.itb_walker_cache.mem_side_port::system.l2.cpu_side_port            3                       # Packet count per connected requestor and responder (Count)
system.tol2bus.pktCount_system.cpu.dtb_walker_cache.mem_side_port::system.l2.cpu_side_port          612                       # Packet count per connected requestor and responder (Count)
system.tol2bus.pktCount::total                 862952                       # Packet count per connected requestor and responder (Count)
system.tol2bus.pktSize_system.cpu.icache.mem_side_port::system.l2.cpu_side_port         5248                       # Cumulative packet size per connected requestor and responder (Byte)
system.tol2bus.pktSize_system.cpu.dcache.mem_side_port::system.l2.cpu_side_port     36238976                       # Cumulative packet size per connected requestor and responder (Byte)
system.tol2bus.pktSize_system.cpu.itb_walker_cache.mem_side_port::system.l2.cpu_side_port           64                       # Cumulative packet size per connected requestor and responder (Byte)
system.tol2bus.pktSize_system.cpu.dtb_walker_cache.mem_side_port::system.l2.cpu_side_port        13056                       # Cumulative packet size per connected requestor and responder (Byte)
system.tol2bus.pktSize::total                36257344                       # Cumulative packet size per connected requestor and responder (Byte)
system.tol2bus.snoops                          137044                       # Total snoops (Count)
system.tol2bus.snoopTraffic                   8770816                       # Total snoop traffic (Byte)
system.tol2bus.snoopFanout::samples            429034                       # Request fanout histogram (Count)
system.tol2bus.snoopFanout::mean             0.000165                       # Request fanout histogram (Count)
system.tol2bus.snoopFanout::stdev            0.012863                       # Request fanout histogram (Count)
system.tol2bus.snoopFanout::underflows              0      0.00%      0.00% # Request fanout histogram (Count)
system.tol2bus.snoopFanout::0                  428963     99.98%     99.98% # Request fanout histogram (Count)
system.tol2bus.snoopFanout::1                      71      0.02%    100.00% # Request fanout histogram (Count)
system.tol2bus.snoopFanout::2                       0      0.00%    100.00% # Request fanout histogram (Count)
system.tol2bus.snoopFanout::3                       0      0.00%    100.00% # Request fanout histogram (Count)
system.tol2bus.snoopFanout::4                       0      0.00%    100.00% # Request fanout histogram (Count)
system.tol2bus.snoopFanout::overflows               0      0.00%    100.00% # Request fanout histogram (Count)
system.tol2bus.snoopFanout::min_value               0                       # Request fanout histogram (Count)
system.tol2bus.snoopFanout::max_value               1                       # Request fanout histogram (Count)
system.tol2bus.snoopFanout::total              429034                       # Request fanout histogram (Count)
system.tol2bus.power_state.pwrStateResidencyTicks::UNDEFINED   3807815500                       # Cumulative time (in ticks) in various power states (Tick)
system.tol2bus.reqLayer0.occupancy          443568141                       # Layer occupancy (ticks) (Tick)
system.tol2bus.reqLayer0.utilization              0.1                       # Layer utilization (Ratio)
system.tol2bus.respLayer0.occupancy             82998                       # Layer occupancy (ticks) (Tick)
system.tol2bus.respLayer0.utilization             0.0                       # Layer utilization (Ratio)
system.tol2bus.respLayer1.occupancy         283117000                       # Layer occupancy (ticks) (Tick)
system.tol2bus.respLayer1.utilization             0.1                       # Layer utilization (Ratio)
system.tol2bus.respLayer2.occupancy              1000                       # Layer occupancy (ticks) (Tick)
system.tol2bus.respLayer2.utilization             0.0                       # Layer utilization (Ratio)
system.tol2bus.respLayer3.occupancy            204499                       # Layer occupancy (ticks) (Tick)
system.tol2bus.respLayer3.utilization             0.0                       # Layer utilization (Ratio)
system.tol2bus.snoop_filter.totRequests        587775                       # Total number of requests made to the snoop filter. (Count)
system.tol2bus.snoop_filter.hitSingleRequests       295784                       # Number of requests hitting in the snoop filter with a single holder of the requested data. (Count)
system.tol2bus.snoop_filter.hitMultiRequests           72                       # Number of requests hitting in the snoop filter with multiple (>1) holders of the requested data. (Count)
system.tol2bus.snoop_filter.totSnoops               0                       # Total number of snoops made to the snoop filter. (Count)
system.tol2bus.snoop_filter.hitSingleSnoops            0                       # Number of snoops hitting in the snoop filter with a single holder of the requested data. (Count)
system.tol2bus.snoop_filter.hitMultiSnoops            0                       # Number of snoops hitting in the snoop filter with multiple (>1) holders of the requested data. (Count)
system.uartlite.power_state.pwrStateResidencyTicks::UNDEFINED   3807815500                       # Cumulative time (in ticks) in various power states (Tick)
system.voltage_domain.voltage                       1                       # Voltage in Volts (Volt)
system.workload.inst.arm                            0                       # number of arm instructions executed (Count)
system.workload.inst.quiesce                        0                       # number of quiesce instructions executed (Count)

---------- End Simulation Statistics   ----------
