
---------- Begin Simulation Statistics ----------
simSeconds                                   0.054526                       # Number of seconds simulated (Second)
simTicks                                  54526280000                       # Number of ticks simulated (Tick)
finalTick                                 54526280000                       # Number of ticks from beginning of simulation (restored from checkpoints and never reset) (Tick)
simFreq                                  1000000000000                       # The number of ticks per simulated second ((Tick/Second))
hostSeconds                                    325.39                       # Real time elapsed on the host (Second)
hostTickRate                                167571737                       # The number of ticks simulated per host second (ticks/s) ((Tick/Second))
hostMemory                                   16919160                       # Number of bytes of host memory used (Byte)
simInsts                                     50000004                       # Number of instructions simulated (Count)
simOps                                       50074706                       # Number of ops (including micro ops) simulated (Count)
hostInstRate                                   153661                       # Simulator instruction rate (inst/s) ((Count/Second))
hostOpRate                                     153891                       # Simulator op (including micro ops) rate (op/s) ((Count/Second))
system.bridge.power_state.pwrStateResidencyTicks::UNDEFINED  54526280000                       # Cumulative time (in ticks) in various power states (Tick)
system.clk_domain.clock                          1000                       # Clock period in ticks (Tick)
system.cpu.numCycles                        109052561                       # Number of cpu cycles simulated (Cycle)
system.cpu.numWorkItemsStarted                      0                       # Number of work items this cpu started (Count)
system.cpu.numWorkItemsCompleted                    0                       # Number of work items this cpu completed (Count)
system.cpu.instsAdded                        54804007                       # Number of instructions added to the IQ (excludes non-spec) (Count)
system.cpu.nonSpecInstsAdded                   532975                       # Number of non-speculative instructions added to the IQ (Count)
system.cpu.instsIssued                       55317325                       # Number of instructions issued (Count)
system.cpu.squashedInstsIssued                 115844                       # Number of squashed instructions issued (Count)
system.cpu.squashedInstsExamined              5262051                       # Number of squashed instructions iterated over during squash; mainly for profiling (Count)
system.cpu.squashedOperandsExamined           3477836                       # Number of squashed operands that are examined and possibly removed from graph (Count)
system.cpu.squashedNonSpecRemoved              269225                       # Number of squashed non-spec instructions that were removed (Count)
system.cpu.numIssuedDist::samples           109021728                       # Number of insts issued each cycle (Count)
system.cpu.numIssuedDist::mean               0.507397                       # Number of insts issued each cycle (Count)
system.cpu.numIssuedDist::stdev              1.335415                       # Number of insts issued each cycle (Count)
system.cpu.numIssuedDist::underflows                0      0.00%      0.00% # Number of insts issued each cycle (Count)
system.cpu.numIssuedDist::0                  89599706     82.19%     82.19% # Number of insts issued each cycle (Count)
system.cpu.numIssuedDist::1                   6416571      5.89%     88.07% # Number of insts issued each cycle (Count)
system.cpu.numIssuedDist::2                   3457053      3.17%     91.24% # Number of insts issued each cycle (Count)
system.cpu.numIssuedDist::3                   2924275      2.68%     93.92% # Number of insts issued each cycle (Count)
system.cpu.numIssuedDist::4                   3020705      2.77%     96.69% # Number of insts issued each cycle (Count)
system.cpu.numIssuedDist::5                   1751140      1.61%     98.30% # Number of insts issued each cycle (Count)
system.cpu.numIssuedDist::6                    957386      0.88%     99.18% # Number of insts issued each cycle (Count)
system.cpu.numIssuedDist::7                    528149      0.48%     99.66% # Number of insts issued each cycle (Count)
system.cpu.numIssuedDist::8                    366743      0.34%    100.00% # Number of insts issued each cycle (Count)
system.cpu.numIssuedDist::overflows                 0      0.00%    100.00% # Number of insts issued each cycle (Count)
system.cpu.numIssuedDist::min_value                 0                       # Number of insts issued each cycle (Count)
system.cpu.numIssuedDist::max_value                 8                       # Number of insts issued each cycle (Count)
system.cpu.numIssuedDist::total             109021728                       # Number of insts issued each cycle (Count)
system.cpu.statFuBusy::No_OpClass                   0      0.00%      0.00% # attempts to use FU when none available (Count)
system.cpu.statFuBusy::IntAlu                   94669      3.77%      3.77% # attempts to use FU when none available (Count)
system.cpu.statFuBusy::IntMult                      0      0.00%      3.77% # attempts to use FU when none available (Count)
system.cpu.statFuBusy::IntDiv                       0      0.00%      3.77% # attempts to use FU when none available (Count)
system.cpu.statFuBusy::FloatAdd                     0      0.00%      3.77% # attempts to use FU when none available (Count)
system.cpu.statFuBusy::FloatCmp                     0      0.00%      3.77% # attempts to use FU when none available (Count)
system.cpu.statFuBusy::FloatCvt                     0      0.00%      3.77% # attempts to use FU when none available (Count)
system.cpu.statFuBusy::FloatMult                    0      0.00%      3.77% # attempts to use FU when none available (Count)
system.cpu.statFuBusy::FloatMultAcc             85276      3.39%      7.16% # attempts to use FU when none available (Count)
system.cpu.statFuBusy::FloatDiv                     0      0.00%      7.16% # attempts to use FU when none available (Count)
system.cpu.statFuBusy::FloatMisc               267127     10.63%     17.79% # attempts to use FU when none available (Count)
system.cpu.statFuBusy::FloatSqrt                    0      0.00%     17.79% # attempts to use FU when none available (Count)
system.cpu.statFuBusy::SimdAdd                      0      0.00%     17.79% # attempts to use FU when none available (Count)
system.cpu.statFuBusy::SimdAddAcc                   0      0.00%     17.79% # attempts to use FU when none available (Count)
system.cpu.statFuBusy::SimdAlu                      0      0.00%     17.79% # attempts to use FU when none available (Count)
system.cpu.statFuBusy::SimdCmp                      0      0.00%     17.79% # attempts to use FU when none available (Count)
system.cpu.statFuBusy::SimdCvt                      0      0.00%     17.79% # attempts to use FU when none available (Count)
system.cpu.statFuBusy::SimdMisc                     0      0.00%     17.79% # attempts to use FU when none available (Count)
system.cpu.statFuBusy::SimdMult                     0      0.00%     17.79% # attempts to use FU when none available (Count)
system.cpu.statFuBusy::SimdMultAcc                  0      0.00%     17.79% # attempts to use FU when none available (Count)
system.cpu.statFuBusy::SimdShift                    0      0.00%     17.79% # attempts to use FU when none available (Count)
system.cpu.statFuBusy::SimdShiftAcc                 0      0.00%     17.79% # attempts to use FU when none available (Count)
system.cpu.statFuBusy::SimdDiv                      0      0.00%     17.79% # attempts to use FU when none available (Count)
system.cpu.statFuBusy::SimdSqrt                     0      0.00%     17.79% # attempts to use FU when none available (Count)
system.cpu.statFuBusy::SimdFloatAdd                 0      0.00%     17.79% # attempts to use FU when none available (Count)
system.cpu.statFuBusy::SimdFloatAlu                 0      0.00%     17.79% # attempts to use FU when none available (Count)
system.cpu.statFuBusy::SimdFloatCmp                 0      0.00%     17.79% # attempts to use FU when none available (Count)
system.cpu.statFuBusy::SimdFloatCvt                 0      0.00%     17.79% # attempts to use FU when none available (Count)
system.cpu.statFuBusy::SimdFloatDiv                 0      0.00%     17.79% # attempts to use FU when none available (Count)
system.cpu.statFuBusy::SimdFloatMisc                0      0.00%     17.79% # attempts to use FU when none available (Count)
system.cpu.statFuBusy::SimdFloatMult                0      0.00%     17.79% # attempts to use FU when none available (Count)
system.cpu.statFuBusy::SimdFloatMultAcc             0      0.00%     17.79% # attempts to use FU when none available (Count)
system.cpu.statFuBusy::SimdFloatSqrt                0      0.00%     17.79% # attempts to use FU when none available (Count)
system.cpu.statFuBusy::SimdReduceAdd                0      0.00%     17.79% # attempts to use FU when none available (Count)
system.cpu.statFuBusy::SimdReduceAlu                0      0.00%     17.79% # attempts to use FU when none available (Count)
system.cpu.statFuBusy::SimdReduceCmp                0      0.00%     17.79% # attempts to use FU when none available (Count)
system.cpu.statFuBusy::SimdFloatReduceAdd            0      0.00%     17.79% # attempts to use FU when none available (Count)
system.cpu.statFuBusy::SimdFloatReduceCmp            0      0.00%     17.79% # attempts to use FU when none available (Count)
system.cpu.statFuBusy::SimdAes                      0      0.00%     17.79% # attempts to use FU when none available (Count)
system.cpu.statFuBusy::SimdAesMix                   0      0.00%     17.79% # attempts to use FU when none available (Count)
system.cpu.statFuBusy::SimdSha1Hash                 0      0.00%     17.79% # attempts to use FU when none available (Count)
system.cpu.statFuBusy::SimdSha1Hash2                0      0.00%     17.79% # attempts to use FU when none available (Count)
system.cpu.statFuBusy::SimdSha256Hash               0      0.00%     17.79% # attempts to use FU when none available (Count)
system.cpu.statFuBusy::SimdSha256Hash2              0      0.00%     17.79% # attempts to use FU when none available (Count)
system.cpu.statFuBusy::SimdShaSigma2                0      0.00%     17.79% # attempts to use FU when none available (Count)
system.cpu.statFuBusy::SimdShaSigma3                0      0.00%     17.79% # attempts to use FU when none available (Count)
system.cpu.statFuBusy::SimdPredAlu                  0      0.00%     17.79% # attempts to use FU when none available (Count)
system.cpu.statFuBusy::MemRead                 331234     13.18%     30.98% # attempts to use FU when none available (Count)
system.cpu.statFuBusy::MemWrite                245763      9.78%     40.76% # attempts to use FU when none available (Count)
system.cpu.statFuBusy::FloatMemRead           1048694     41.74%     82.50% # attempts to use FU when none available (Count)
system.cpu.statFuBusy::FloatMemWrite           439737     17.50%    100.00% # attempts to use FU when none available (Count)
system.cpu.statFuBusy::IprAccess                    0      0.00%    100.00% # attempts to use FU when none available (Count)
system.cpu.statFuBusy::InstPrefetch                 0      0.00%    100.00% # attempts to use FU when none available (Count)
system.cpu.statIssuedInstType_0::No_OpClass       120772      0.22%      0.22% # Number of instructions issued per FU type, per thread (Count)
system.cpu.statIssuedInstType_0::IntAlu      25883069     46.79%     47.01% # Number of instructions issued per FU type, per thread (Count)
system.cpu.statIssuedInstType_0::IntMult        63540      0.11%     47.12% # Number of instructions issued per FU type, per thread (Count)
system.cpu.statIssuedInstType_0::IntDiv             0      0.00%     47.12% # Number of instructions issued per FU type, per thread (Count)
system.cpu.statIssuedInstType_0::FloatAdd            0      0.00%     47.12% # Number of instructions issued per FU type, per thread (Count)
system.cpu.statIssuedInstType_0::FloatCmp            0      0.00%     47.12% # Number of instructions issued per FU type, per thread (Count)
system.cpu.statIssuedInstType_0::FloatCvt            0      0.00%     47.12% # Number of instructions issued per FU type, per thread (Count)
system.cpu.statIssuedInstType_0::FloatMult            0      0.00%     47.12% # Number of instructions issued per FU type, per thread (Count)
system.cpu.statIssuedInstType_0::FloatMultAcc      2217005      4.01%     51.13% # Number of instructions issued per FU type, per thread (Count)
system.cpu.statIssuedInstType_0::FloatDiv            0      0.00%     51.13% # Number of instructions issued per FU type, per thread (Count)
system.cpu.statIssuedInstType_0::FloatMisc      1108457      2.00%     53.13% # Number of instructions issued per FU type, per thread (Count)
system.cpu.statIssuedInstType_0::FloatSqrt            0      0.00%     53.13% # Number of instructions issued per FU type, per thread (Count)
system.cpu.statIssuedInstType_0::SimdAdd            0      0.00%     53.13% # Number of instructions issued per FU type, per thread (Count)
system.cpu.statIssuedInstType_0::SimdAddAcc            0      0.00%     53.13% # Number of instructions issued per FU type, per thread (Count)
system.cpu.statIssuedInstType_0::SimdAlu            0      0.00%     53.13% # Number of instructions issued per FU type, per thread (Count)
system.cpu.statIssuedInstType_0::SimdCmp            0      0.00%     53.13% # Number of instructions issued per FU type, per thread (Count)
system.cpu.statIssuedInstType_0::SimdCvt            0      0.00%     53.13% # Number of instructions issued per FU type, per thread (Count)
system.cpu.statIssuedInstType_0::SimdMisc            0      0.00%     53.13% # Number of instructions issued per FU type, per thread (Count)
system.cpu.statIssuedInstType_0::SimdMult            0      0.00%     53.13% # Number of instructions issued per FU type, per thread (Count)
system.cpu.statIssuedInstType_0::SimdMultAcc            0      0.00%     53.13% # Number of instructions issued per FU type, per thread (Count)
system.cpu.statIssuedInstType_0::SimdShift            0      0.00%     53.13% # Number of instructions issued per FU type, per thread (Count)
system.cpu.statIssuedInstType_0::SimdShiftAcc            0      0.00%     53.13% # Number of instructions issued per FU type, per thread (Count)
system.cpu.statIssuedInstType_0::SimdDiv            0      0.00%     53.13% # Number of instructions issued per FU type, per thread (Count)
system.cpu.statIssuedInstType_0::SimdSqrt            0      0.00%     53.13% # Number of instructions issued per FU type, per thread (Count)
system.cpu.statIssuedInstType_0::SimdFloatAdd            0      0.00%     53.13% # Number of instructions issued per FU type, per thread (Count)
system.cpu.statIssuedInstType_0::SimdFloatAlu            0      0.00%     53.13% # Number of instructions issued per FU type, per thread (Count)
system.cpu.statIssuedInstType_0::SimdFloatCmp            0      0.00%     53.13% # Number of instructions issued per FU type, per thread (Count)
system.cpu.statIssuedInstType_0::SimdFloatCvt            0      0.00%     53.13% # Number of instructions issued per FU type, per thread (Count)
system.cpu.statIssuedInstType_0::SimdFloatDiv            0      0.00%     53.13% # Number of instructions issued per FU type, per thread (Count)
system.cpu.statIssuedInstType_0::SimdFloatMisc            0      0.00%     53.13% # Number of instructions issued per FU type, per thread (Count)
system.cpu.statIssuedInstType_0::SimdFloatMult            0      0.00%     53.13% # Number of instructions issued per FU type, per thread (Count)
system.cpu.statIssuedInstType_0::SimdFloatMultAcc            0      0.00%     53.13% # Number of instructions issued per FU type, per thread (Count)
system.cpu.statIssuedInstType_0::SimdFloatSqrt            0      0.00%     53.13% # Number of instructions issued per FU type, per thread (Count)
system.cpu.statIssuedInstType_0::SimdReduceAdd            0      0.00%     53.13% # Number of instructions issued per FU type, per thread (Count)
system.cpu.statIssuedInstType_0::SimdReduceAlu            0      0.00%     53.13% # Number of instructions issued per FU type, per thread (Count)
system.cpu.statIssuedInstType_0::SimdReduceCmp            0      0.00%     53.13% # Number of instructions issued per FU type, per thread (Count)
system.cpu.statIssuedInstType_0::SimdFloatReduceAdd            0      0.00%     53.13% # Number of instructions issued per FU type, per thread (Count)
system.cpu.statIssuedInstType_0::SimdFloatReduceCmp            0      0.00%     53.13% # Number of instructions issued per FU type, per thread (Count)
system.cpu.statIssuedInstType_0::SimdAes            0      0.00%     53.13% # Number of instructions issued per FU type, per thread (Count)
system.cpu.statIssuedInstType_0::SimdAesMix            0      0.00%     53.13% # Number of instructions issued per FU type, per thread (Count)
system.cpu.statIssuedInstType_0::SimdSha1Hash            0      0.00%     53.13% # Number of instructions issued per FU type, per thread (Count)
system.cpu.statIssuedInstType_0::SimdSha1Hash2            0      0.00%     53.13% # Number of instructions issued per FU type, per thread (Count)
system.cpu.statIssuedInstType_0::SimdSha256Hash            0      0.00%     53.13% # Number of instructions issued per FU type, per thread (Count)
system.cpu.statIssuedInstType_0::SimdSha256Hash2            0      0.00%     53.13% # Number of instructions issued per FU type, per thread (Count)
system.cpu.statIssuedInstType_0::SimdShaSigma2            0      0.00%     53.13% # Number of instructions issued per FU type, per thread (Count)
system.cpu.statIssuedInstType_0::SimdShaSigma3            0      0.00%     53.13% # Number of instructions issued per FU type, per thread (Count)
system.cpu.statIssuedInstType_0::SimdPredAlu            0      0.00%     53.13% # Number of instructions issued per FU type, per thread (Count)
system.cpu.statIssuedInstType_0::MemRead      2322405      4.20%     57.33% # Number of instructions issued per FU type, per thread (Count)
system.cpu.statIssuedInstType_0::MemWrite      2050897      3.71%     61.04% # Number of instructions issued per FU type, per thread (Count)
system.cpu.statIssuedInstType_0::FloatMemRead     12062514     21.81%     82.85% # Number of instructions issued per FU type, per thread (Count)
system.cpu.statIssuedInstType_0::FloatMemWrite      9488666     17.15%    100.00% # Number of instructions issued per FU type, per thread (Count)
system.cpu.statIssuedInstType_0::IprAccess            0      0.00%    100.00% # Number of instructions issued per FU type, per thread (Count)
system.cpu.statIssuedInstType_0::InstPrefetch            0      0.00%    100.00% # Number of instructions issued per FU type, per thread (Count)
system.cpu.statIssuedInstType_0::total       55317325                       # Number of instructions issued per FU type, per thread (Count)
system.cpu.issueRate                         0.507254                       # Inst issue rate ((Count/Cycle))
system.cpu.fuBusy                             2512500                       # FU busy when requested (Count)
system.cpu.fuBusyRate                        0.045420                       # FU busy rate (busy events/executed inst) ((Count/Count))
system.cpu.intInstQueueReads                170601608                       # Number of integer instruction queue reads (Count)
system.cpu.intInstQueueWrites                37982341                       # Number of integer instruction queue writes (Count)
system.cpu.intInstQueueWakeupAccesses        30285929                       # Number of integer instruction queue wakeup accesses (Count)
system.cpu.fpInstQueueReads                  51683111                       # Number of floating instruction queue reads (Count)
system.cpu.fpInstQueueWrites                 22640997                       # Number of floating instruction queue writes (Count)
system.cpu.fpInstQueueWakeupAccesses         22231378                       # Number of floating instruction queue wakeup accesses (Count)
system.cpu.vecInstQueueReads                        0                       # Number of vector instruction queue reads (Count)
system.cpu.vecInstQueueWrites                       0                       # Number of vector instruction queue writes (Count)
system.cpu.vecInstQueueWakeupAccesses               0                       # Number of vector instruction queue wakeup accesses (Count)
system.cpu.intAluAccesses                    30991577                       # Number of integer alu accesses (Count)
system.cpu.fpAluAccesses                     26717476                       # Number of floating point alu accesses (Count)
system.cpu.vecAluAccesses                           0                       # Number of vector alu accesses (Count)
system.cpu.numInsts                          52632936                       # Number of executed instructions (Count)
system.cpu.numLoadInsts                      12826147                       # Number of load instructions executed (Count)
system.cpu.numSquashedInsts                     68907                       # Number of squashed instructions skipped in execute (Count)
system.cpu.numSwp                                   0                       # Number of swp insts executed (Count)
system.cpu.numNop                                   0                       # Number of nop insts executed (Count)
system.cpu.numRefs                           23248408                       # Number of memory reference insts executed (Count)
system.cpu.numBranches                        6544733                       # Number of branches executed (Count)
system.cpu.numStoreInsts                     10422261                       # Number of stores executed (Count)
system.cpu.numRate                           0.482638                       # Inst execution rate ((Count/Cycle))
system.cpu.timesIdled                             303                       # Number of times that the entire CPU went into an idle state and unscheduled itself (Count)
system.cpu.idleCycles                           30833                       # Total number of cycles that the CPU has spent unscheduled due to idling (Cycle)
system.cpu.committedInsts                    50000004                       # Number of Instructions Simulated (Count)
system.cpu.committedOps                      50074706                       # Number of Ops (including micro ops) Simulated (Count)
system.cpu.cpi                               2.181051                       # CPI: Cycles Per Instruction ((Cycle/Count))
system.cpu.totalCpi                          2.181051                       # CPI: Total CPI of All Threads ((Cycle/Count))
system.cpu.ipc                               0.458495                       # IPC: Instructions Per Cycle ((Count/Cycle))
system.cpu.totalIpc                          0.458495                       # IPC: Total IPC of All Threads ((Count/Cycle))
system.cpu.intRegfileReads                   57413698                       # Number of integer regfile reads (Count)
system.cpu.intRegfileWrites                  22181964                       # Number of integer regfile writes (Count)
system.cpu.fpRegfileReads                    18356099                       # Number of floating regfile reads (Count)
system.cpu.fpRegfileWrites                   13988538                       # Number of floating regfile writes (Count)
system.cpu.miscRegfileReads                 960847244                       # number of misc regfile reads (Count)
system.cpu.miscRegfileWrites                 13950231                       # number of misc regfile writes (Count)
system.cpu.lastCommitTick                 54526280000                       # The last tick to commit an instruction (Count)
system.cpu.MemDepUnit__0.insertedLoads       13397331                       # Number of loads inserted to the mem dependence unit. (Count)
system.cpu.MemDepUnit__0.insertedStores      10973660                       # Number of stores inserted to the mem dependence unit. (Count)
system.cpu.MemDepUnit__0.conflictingLoads      5236602                       # Number of conflicting loads. (Count)
system.cpu.MemDepUnit__0.conflictingStores      3043189                       # Number of conflicting stores. (Count)
system.cpu.MemDepUnit__1.insertedLoads              0                       # Number of loads inserted to the mem dependence unit. (Count)
system.cpu.MemDepUnit__1.insertedStores             0                       # Number of stores inserted to the mem dependence unit. (Count)
system.cpu.MemDepUnit__1.conflictingLoads            0                       # Number of conflicting loads. (Count)
system.cpu.MemDepUnit__1.conflictingStores            0                       # Number of conflicting stores. (Count)
system.cpu.MemDepUnit__2.insertedLoads              0                       # Number of loads inserted to the mem dependence unit. (Count)
system.cpu.MemDepUnit__2.insertedStores             0                       # Number of stores inserted to the mem dependence unit. (Count)
system.cpu.MemDepUnit__2.conflictingLoads            0                       # Number of conflicting loads. (Count)
system.cpu.MemDepUnit__2.conflictingStores            0                       # Number of conflicting stores. (Count)
system.cpu.MemDepUnit__3.insertedLoads              0                       # Number of loads inserted to the mem dependence unit. (Count)
system.cpu.MemDepUnit__3.insertedStores             0                       # Number of stores inserted to the mem dependence unit. (Count)
system.cpu.MemDepUnit__3.conflictingLoads            0                       # Number of conflicting loads. (Count)
system.cpu.MemDepUnit__3.conflictingStores            0                       # Number of conflicting stores. (Count)
system.cpu.branchPred.lookups                 7502391                       # Number of BP lookups (Count)
system.cpu.branchPred.condPredicted           6095406                       # Number of conditional branches predicted (Count)
system.cpu.branchPred.condIncorrect             25095                       # Number of conditional branches incorrect (Count)
system.cpu.branchPred.BTBLookups              4115413                       # Number of BTB lookups (Count)
system.cpu.branchPred.BTBHits                 4095484                       # Number of BTB hits (Count)
system.cpu.branchPred.BTBHitRatio            0.995157                       # BTB Hit Ratio (Ratio)
system.cpu.branchPred.RASUsed                  644607                       # Number of times the RAS was used to get a target. (Count)
system.cpu.branchPred.RASIncorrect               7271                       # Number of incorrect RAS predictions. (Count)
system.cpu.branchPred.indirectLookups            4943                       # Number of indirect predictor lookups. (Count)
system.cpu.branchPred.indirectHits               4943                       # Number of indirect target hits. (Count)
system.cpu.branchPred.indirectMisses                0                       # Number of indirect misses. (Count)
system.cpu.branchPred.indirectMispredicted           17                       # Number of mispredicted indirect branches. (Count)
system.cpu.branchPred.indirectBranchPred.mainlookupHit         3628                       # ittage the provider component lookup hit (Count)
system.cpu.branchPred.tage.longestMatchProviderCorrect      2451600                       # Number of times TAGE Longest Match is the provider and the prediction is correct (Count)
system.cpu.branchPred.tage.altMatchProviderCorrect         2458                       # Number of times TAGE Alt Match is the provider and the prediction is correct (Count)
system.cpu.branchPred.tage.bimodalAltMatchProviderCorrect          230                       # Number of times TAGE Alt Match is the bimodal and it is the provider and the prediction is correct (Count)
system.cpu.branchPred.tage.bimodalProviderCorrect      2488042                       # Number of times there are no hits on the TAGE tables and the bimodal prediction is correct (Count)
system.cpu.branchPred.tage.longestMatchProviderWrong         4538                       # Number of times TAGE Longest Match is the provider and the prediction is wrong (Count)
system.cpu.branchPred.tage.altMatchProviderWrong         1635                       # Number of times TAGE Alt Match is the provider and the prediction is wrong (Count)
system.cpu.branchPred.tage.bimodalAltMatchProviderWrong           97                       # Number of times TAGE Alt Match is the bimodal and it is the provider and the prediction is wrong (Count)
system.cpu.branchPred.tage.bimodalProviderWrong          560                       # Number of times there are no hits on the TAGE tables and the bimodal prediction is wrong (Count)
system.cpu.branchPred.tage.altMatchProviderWouldHaveHit          428                       # Number of times TAGE Longest Match is the provider, the prediction is wrong and Alt Match prediction was correct (Count)
system.cpu.branchPred.tage.longestMatchProviderWouldHaveHit          534                       # Number of times TAGE Alt Match is the provider, the prediction is wrong and Longest Match prediction was correct (Count)
system.cpu.branchPred.tage.longestMatchProvider::0            0                       # TAGE provider for longest match (Count)
system.cpu.branchPred.tage.longestMatchProvider::1      1252764                       # TAGE provider for longest match (Count)
system.cpu.branchPred.tage.longestMatchProvider::2       348514                       # TAGE provider for longest match (Count)
system.cpu.branchPred.tage.longestMatchProvider::3       626300                       # TAGE provider for longest match (Count)
system.cpu.branchPred.tage.longestMatchProvider::4       154211                       # TAGE provider for longest match (Count)
system.cpu.branchPred.tage.longestMatchProvider::5        18963                       # TAGE provider for longest match (Count)
system.cpu.branchPred.tage.longestMatchProvider::6        20029                       # TAGE provider for longest match (Count)
system.cpu.branchPred.tage.longestMatchProvider::7        39450                       # TAGE provider for longest match (Count)
system.cpu.branchPred.tage.altMatchProvider::0      1365048                       # TAGE provider for alt match (Count)
system.cpu.branchPred.tage.altMatchProvider::1       686345                       # TAGE provider for alt match (Count)
system.cpu.branchPred.tage.altMatchProvider::2       313557                       # TAGE provider for alt match (Count)
system.cpu.branchPred.tage.altMatchProvider::3        23523                       # TAGE provider for alt match (Count)
system.cpu.branchPred.tage.altMatchProvider::4        20658                       # TAGE provider for alt match (Count)
system.cpu.branchPred.tage.altMatchProvider::5        25699                       # TAGE provider for alt match (Count)
system.cpu.branchPred.tage.altMatchProvider::6        25401                       # TAGE provider for alt match (Count)
system.cpu.branchPred.tage.altMatchProvider::7            0                       # TAGE provider for alt match (Count)
system.cpu.commit.commitSquashedInsts         5262025                       # The number of squashed insts skipped by commit (Count)
system.cpu.commit.commitNonSpecStalls          263750                       # The number of times commit has been forced to stall to communicate backwards (Count)
system.cpu.commit.branchMispredicts             26808                       # The number of times a branch was mispredicted (Count)
system.cpu.commit.numCommittedDist::samples    108115535                       # Number of insts commited each cycle (Count)
system.cpu.commit.numCommittedDist::mean     0.463159                       # Number of insts commited each cycle (Count)
system.cpu.commit.numCommittedDist::stdev     1.489183                       # Number of insts commited each cycle (Count)
system.cpu.commit.numCommittedDist::underflows            0      0.00%      0.00% # Number of insts commited each cycle (Count)
system.cpu.commit.numCommittedDist::0        96436165     89.20%     89.20% # Number of insts commited each cycle (Count)
system.cpu.commit.numCommittedDist::1         1623061      1.50%     90.70% # Number of insts commited each cycle (Count)
system.cpu.commit.numCommittedDist::2         1979542      1.83%     92.53% # Number of insts commited each cycle (Count)
system.cpu.commit.numCommittedDist::3          876015      0.81%     93.34% # Number of insts commited each cycle (Count)
system.cpu.commit.numCommittedDist::4          522163      0.48%     93.82% # Number of insts commited each cycle (Count)
system.cpu.commit.numCommittedDist::5          295670      0.27%     94.10% # Number of insts commited each cycle (Count)
system.cpu.commit.numCommittedDist::6         6382919      5.90%    100.00% # Number of insts commited each cycle (Count)
system.cpu.commit.numCommittedDist::overflows            0      0.00%    100.00% # Number of insts commited each cycle (Count)
system.cpu.commit.numCommittedDist::min_value            0                       # Number of insts commited each cycle (Count)
system.cpu.commit.numCommittedDist::max_value            6                       # Number of insts commited each cycle (Count)
system.cpu.commit.numCommittedDist::total    108115535                       # Number of insts commited each cycle (Count)
system.cpu.commit.instsCommitted             50000004                       # Number of instructions committed (Count)
system.cpu.commit.opsCommitted               50074706                       # Number of ops (including micro ops) committed (Count)
system.cpu.commit.memRefs                    22737748                       # Number of memory references committed (Count)
system.cpu.commit.loads                      12411456                       # Number of loads committed (Count)
system.cpu.commit.amos                         145281                       # Number of atomic instructions committed (Count)
system.cpu.commit.membars                       74702                       # Number of memory barriers committed (Count)
system.cpu.commit.branches                    6107591                       # Number of branches committed (Count)
system.cpu.commit.vectorInstructions                0                       # Number of committed Vector instructions. (Count)
system.cpu.commit.floating                   22151178                       # Number of committed floating point instructions. (Count)
system.cpu.commit.integer                    46613539                       # Number of committed integer instructions. (Count)
system.cpu.commit.functionCalls                547745                       # Number of function calls committed. (Count)
system.cpu.commit.committedInstType_0::No_OpClass       116652      0.23%      0.23% # Class of committed instruction (Count)
system.cpu.commit.committedInstType_0::IntAlu     23833011     47.59%     47.83% # Class of committed instruction (Count)
system.cpu.commit.committedInstType_0::IntMult        61953      0.12%     47.95% # Class of committed instruction (Count)
system.cpu.commit.committedInstType_0::IntDiv            0      0.00%     47.95% # Class of committed instruction (Count)
system.cpu.commit.committedInstType_0::FloatAdd            0      0.00%     47.95% # Class of committed instruction (Count)
system.cpu.commit.committedInstType_0::FloatCmp            0      0.00%     47.95% # Class of committed instruction (Count)
system.cpu.commit.committedInstType_0::FloatCvt            0      0.00%     47.95% # Class of committed instruction (Count)
system.cpu.commit.committedInstType_0::FloatMult            0      0.00%     47.95% # Class of committed instruction (Count)
system.cpu.commit.committedInstType_0::FloatMultAcc      2216893      4.43%     52.38% # Class of committed instruction (Count)
system.cpu.commit.committedInstType_0::FloatDiv            0      0.00%     52.38% # Class of committed instruction (Count)
system.cpu.commit.committedInstType_0::FloatMisc      1108449      2.21%     54.59% # Class of committed instruction (Count)
system.cpu.commit.committedInstType_0::FloatSqrt            0      0.00%     54.59% # Class of committed instruction (Count)
system.cpu.commit.committedInstType_0::SimdAdd            0      0.00%     54.59% # Class of committed instruction (Count)
system.cpu.commit.committedInstType_0::SimdAddAcc            0      0.00%     54.59% # Class of committed instruction (Count)
system.cpu.commit.committedInstType_0::SimdAlu            0      0.00%     54.59% # Class of committed instruction (Count)
system.cpu.commit.committedInstType_0::SimdCmp            0      0.00%     54.59% # Class of committed instruction (Count)
system.cpu.commit.committedInstType_0::SimdCvt            0      0.00%     54.59% # Class of committed instruction (Count)
system.cpu.commit.committedInstType_0::SimdMisc            0      0.00%     54.59% # Class of committed instruction (Count)
system.cpu.commit.committedInstType_0::SimdMult            0      0.00%     54.59% # Class of committed instruction (Count)
system.cpu.commit.committedInstType_0::SimdMultAcc            0      0.00%     54.59% # Class of committed instruction (Count)
system.cpu.commit.committedInstType_0::SimdShift            0      0.00%     54.59% # Class of committed instruction (Count)
system.cpu.commit.committedInstType_0::SimdShiftAcc            0      0.00%     54.59% # Class of committed instruction (Count)
system.cpu.commit.committedInstType_0::SimdDiv            0      0.00%     54.59% # Class of committed instruction (Count)
system.cpu.commit.committedInstType_0::SimdSqrt            0      0.00%     54.59% # Class of committed instruction (Count)
system.cpu.commit.committedInstType_0::SimdFloatAdd            0      0.00%     54.59% # Class of committed instruction (Count)
system.cpu.commit.committedInstType_0::SimdFloatAlu            0      0.00%     54.59% # Class of committed instruction (Count)
system.cpu.commit.committedInstType_0::SimdFloatCmp            0      0.00%     54.59% # Class of committed instruction (Count)
system.cpu.commit.committedInstType_0::SimdFloatCvt            0      0.00%     54.59% # Class of committed instruction (Count)
system.cpu.commit.committedInstType_0::SimdFloatDiv            0      0.00%     54.59% # Class of committed instruction (Count)
system.cpu.commit.committedInstType_0::SimdFloatMisc            0      0.00%     54.59% # Class of committed instruction (Count)
system.cpu.commit.committedInstType_0::SimdFloatMult            0      0.00%     54.59% # Class of committed instruction (Count)
system.cpu.commit.committedInstType_0::SimdFloatMultAcc            0      0.00%     54.59% # Class of committed instruction (Count)
system.cpu.commit.committedInstType_0::SimdFloatSqrt            0      0.00%     54.59% # Class of committed instruction (Count)
system.cpu.commit.committedInstType_0::SimdReduceAdd            0      0.00%     54.59% # Class of committed instruction (Count)
system.cpu.commit.committedInstType_0::SimdReduceAlu            0      0.00%     54.59% # Class of committed instruction (Count)
system.cpu.commit.committedInstType_0::SimdReduceCmp            0      0.00%     54.59% # Class of committed instruction (Count)
system.cpu.commit.committedInstType_0::SimdFloatReduceAdd            0      0.00%     54.59% # Class of committed instruction (Count)
system.cpu.commit.committedInstType_0::SimdFloatReduceCmp            0      0.00%     54.59% # Class of committed instruction (Count)
system.cpu.commit.committedInstType_0::SimdAes            0      0.00%     54.59% # Class of committed instruction (Count)
system.cpu.commit.committedInstType_0::SimdAesMix            0      0.00%     54.59% # Class of committed instruction (Count)
system.cpu.commit.committedInstType_0::SimdSha1Hash            0      0.00%     54.59% # Class of committed instruction (Count)
system.cpu.commit.committedInstType_0::SimdSha1Hash2            0      0.00%     54.59% # Class of committed instruction (Count)
system.cpu.commit.committedInstType_0::SimdSha256Hash            0      0.00%     54.59% # Class of committed instruction (Count)
system.cpu.commit.committedInstType_0::SimdSha256Hash2            0      0.00%     54.59% # Class of committed instruction (Count)
system.cpu.commit.committedInstType_0::SimdShaSigma2            0      0.00%     54.59% # Class of committed instruction (Count)
system.cpu.commit.committedInstType_0::SimdShaSigma3            0      0.00%     54.59% # Class of committed instruction (Count)
system.cpu.commit.committedInstType_0::SimdPredAlu            0      0.00%     54.59% # Class of committed instruction (Count)
system.cpu.commit.committedInstType_0::MemRead      1973792      3.94%     58.53% # Class of committed instruction (Count)
system.cpu.commit.committedInstType_0::MemWrite      1938120      3.87%     62.40% # Class of committed instruction (Count)
system.cpu.commit.committedInstType_0::FloatMemRead     10582945     21.13%     83.54% # Class of committed instruction (Count)
system.cpu.commit.committedInstType_0::FloatMemWrite      8242891     16.46%    100.00% # Class of committed instruction (Count)
system.cpu.commit.committedInstType_0::IprAccess            0      0.00%    100.00% # Class of committed instruction (Count)
system.cpu.commit.committedInstType_0::InstPrefetch            0      0.00%    100.00% # Class of committed instruction (Count)
system.cpu.commit.committedInstType_0::total     50074706                       # Class of committed instruction (Count)
system.cpu.commit.commitEligibleSamples       6382919                       # number cycles where commit BW limit reached (Cycle)
system.cpu.dcache.demandHits::cpu.data       10207295                       # number of demand (read+write) hits (Count)
system.cpu.dcache.demandHits::total          10207295                       # number of demand (read+write) hits (Count)
system.cpu.dcache.overallHits::cpu.data      10207295                       # number of overall hits (Count)
system.cpu.dcache.overallHits::total         10207295                       # number of overall hits (Count)
system.cpu.dcache.demandMisses::cpu.data     10783979                       # number of demand (read+write) misses (Count)
system.cpu.dcache.demandMisses::total        10783979                       # number of demand (read+write) misses (Count)
system.cpu.dcache.overallMisses::cpu.data     10783979                       # number of overall misses (Count)
system.cpu.dcache.overallMisses::total       10783979                       # number of overall misses (Count)
system.cpu.dcache.demandMissLatency::cpu.data 1058458467500                       # number of demand (read+write) miss ticks (Tick)
system.cpu.dcache.demandMissLatency::total 1058458467500                       # number of demand (read+write) miss ticks (Tick)
system.cpu.dcache.overallMissLatency::cpu.data 1058458467500                       # number of overall miss ticks (Tick)
system.cpu.dcache.overallMissLatency::total 1058458467500                       # number of overall miss ticks (Tick)
system.cpu.dcache.demandAccesses::cpu.data     20991274                       # number of demand (read+write) accesses (Count)
system.cpu.dcache.demandAccesses::total      20991274                       # number of demand (read+write) accesses (Count)
system.cpu.dcache.overallAccesses::cpu.data     20991274                       # number of overall (read+write) accesses (Count)
system.cpu.dcache.overallAccesses::total     20991274                       # number of overall (read+write) accesses (Count)
system.cpu.dcache.demandMissRate::cpu.data     0.513736                       # miss rate for demand accesses (Ratio)
system.cpu.dcache.demandMissRate::total      0.513736                       # miss rate for demand accesses (Ratio)
system.cpu.dcache.overallMissRate::cpu.data     0.513736                       # miss rate for overall accesses (Ratio)
system.cpu.dcache.overallMissRate::total     0.513736                       # miss rate for overall accesses (Ratio)
system.cpu.dcache.demandAvgMissLatency::cpu.data 98151.013415                       # average overall miss latency in ticks ((Tick/Count))
system.cpu.dcache.demandAvgMissLatency::total 98151.013415                       # average overall miss latency in ticks ((Tick/Count))
system.cpu.dcache.overallAvgMissLatency::cpu.data 98151.013415                       # average overall miss latency ((Tick/Count))
system.cpu.dcache.overallAvgMissLatency::total 98151.013415                       # average overall miss latency ((Tick/Count))
system.cpu.dcache.blockedCycles::no_mshrs           81                       # number of cycles access was blocked (Cycle)
system.cpu.dcache.blockedCycles::no_targets            0                       # number of cycles access was blocked (Cycle)
system.cpu.dcache.blockedCauses::no_mshrs           17                       # number of times access was blocked (Count)
system.cpu.dcache.blockedCauses::no_targets            0                       # number of times access was blocked (Count)
system.cpu.dcache.avgBlocked::no_mshrs       4.764706                       # average number of cycles each access was blocked ((Cycle/Count))
system.cpu.dcache.avgBlocked::no_targets          nan                       # average number of cycles each access was blocked ((Cycle/Count))
system.cpu.dcache.writebacks::writebacks      1881783                       # number of writebacks (Count)
system.cpu.dcache.writebacks::total           1881783                       # number of writebacks (Count)
system.cpu.dcache.demandMshrHits::cpu.data      8902580                       # number of demand (read+write) MSHR hits (Count)
system.cpu.dcache.demandMshrHits::total       8902580                       # number of demand (read+write) MSHR hits (Count)
system.cpu.dcache.overallMshrHits::cpu.data      8902580                       # number of overall MSHR hits (Count)
system.cpu.dcache.overallMshrHits::total      8902580                       # number of overall MSHR hits (Count)
system.cpu.dcache.demandMshrMisses::cpu.data      1881399                       # number of demand (read+write) MSHR misses (Count)
system.cpu.dcache.demandMshrMisses::total      1881399                       # number of demand (read+write) MSHR misses (Count)
system.cpu.dcache.overallMshrMisses::cpu.data      1881399                       # number of overall MSHR misses (Count)
system.cpu.dcache.overallMshrMisses::total      1881399                       # number of overall MSHR misses (Count)
system.cpu.dcache.overallMshrUncacheable::cpu.data            2                       # number of overall MSHR uncacheable misses (Count)
system.cpu.dcache.overallMshrUncacheable::total            2                       # number of overall MSHR uncacheable misses (Count)
system.cpu.dcache.demandMshrMissLatency::cpu.data 192444178500                       # number of demand (read+write) MSHR miss ticks (Tick)
system.cpu.dcache.demandMshrMissLatency::total 192444178500                       # number of demand (read+write) MSHR miss ticks (Tick)
system.cpu.dcache.overallMshrMissLatency::cpu.data 192444178500                       # number of overall MSHR miss ticks (Tick)
system.cpu.dcache.overallMshrMissLatency::total 192444178500                       # number of overall MSHR miss ticks (Tick)
system.cpu.dcache.demandMshrMissRate::cpu.data     0.089628                       # mshr miss ratio for demand accesses (Ratio)
system.cpu.dcache.demandMshrMissRate::total     0.089628                       # mshr miss ratio for demand accesses (Ratio)
system.cpu.dcache.overallMshrMissRate::cpu.data     0.089628                       # mshr miss ratio for overall accesses (Ratio)
system.cpu.dcache.overallMshrMissRate::total     0.089628                       # mshr miss ratio for overall accesses (Ratio)
system.cpu.dcache.demandAvgMshrMissLatency::cpu.data 102287.807371                       # average overall mshr miss latency ((Tick/Count))
system.cpu.dcache.demandAvgMshrMissLatency::total 102287.807371                       # average overall mshr miss latency ((Tick/Count))
system.cpu.dcache.overallAvgMshrMissLatency::cpu.data 102287.807371                       # average overall mshr miss latency ((Tick/Count))
system.cpu.dcache.overallAvgMshrMissLatency::total 102287.807371                       # average overall mshr miss latency ((Tick/Count))
system.cpu.dcache.replacements                1881783                       # number of replacements (Count)
system.cpu.dcache.ReadReq.hits::cpu.data      3771056                       # number of ReadReq hits (Count)
system.cpu.dcache.ReadReq.hits::total         3771056                       # number of ReadReq hits (Count)
system.cpu.dcache.ReadReq.misses::cpu.data      7039210                       # number of ReadReq misses (Count)
system.cpu.dcache.ReadReq.misses::total       7039210                       # number of ReadReq misses (Count)
system.cpu.dcache.ReadReq.missLatency::cpu.data 675244371000                       # number of ReadReq miss ticks (Tick)
system.cpu.dcache.ReadReq.missLatency::total 675244371000                       # number of ReadReq miss ticks (Tick)
system.cpu.dcache.ReadReq.accesses::cpu.data     10810266                       # number of ReadReq accesses(hits+misses) (Count)
system.cpu.dcache.ReadReq.accesses::total     10810266                       # number of ReadReq accesses(hits+misses) (Count)
system.cpu.dcache.ReadReq.missRate::cpu.data     0.651160                       # miss rate for ReadReq accesses (Ratio)
system.cpu.dcache.ReadReq.missRate::total     0.651160                       # miss rate for ReadReq accesses (Ratio)
system.cpu.dcache.ReadReq.avgMissLatency::cpu.data 95926.158049                       # average ReadReq miss latency ((Tick/Count))
system.cpu.dcache.ReadReq.avgMissLatency::total 95926.158049                       # average ReadReq miss latency ((Tick/Count))
system.cpu.dcache.ReadReq.mshrHits::cpu.data      5758005                       # number of ReadReq MSHR hits (Count)
system.cpu.dcache.ReadReq.mshrHits::total      5758005                       # number of ReadReq MSHR hits (Count)
system.cpu.dcache.ReadReq.mshrMisses::cpu.data      1281205                       # number of ReadReq MSHR misses (Count)
system.cpu.dcache.ReadReq.mshrMisses::total      1281205                       # number of ReadReq MSHR misses (Count)
system.cpu.dcache.ReadReq.mshrMissLatency::cpu.data 128277217000                       # number of ReadReq MSHR miss ticks (Tick)
system.cpu.dcache.ReadReq.mshrMissLatency::total 128277217000                       # number of ReadReq MSHR miss ticks (Tick)
system.cpu.dcache.ReadReq.mshrMissRate::cpu.data     0.118517                       # mshr miss rate for ReadReq accesses (Ratio)
system.cpu.dcache.ReadReq.mshrMissRate::total     0.118517                       # mshr miss rate for ReadReq accesses (Ratio)
system.cpu.dcache.ReadReq.avgMshrMissLatency::cpu.data 100122.320003                       # average ReadReq mshr miss latency ((Tick/Count))
system.cpu.dcache.ReadReq.avgMshrMissLatency::total 100122.320003                       # average ReadReq mshr miss latency ((Tick/Count))
system.cpu.dcache.SwapReq.hits::cpu.data       141028                       # number of SwapReq hits (Count)
system.cpu.dcache.SwapReq.hits::total          141028                       # number of SwapReq hits (Count)
system.cpu.dcache.SwapReq.misses::cpu.data         4253                       # number of SwapReq misses (Count)
system.cpu.dcache.SwapReq.misses::total          4253                       # number of SwapReq misses (Count)
system.cpu.dcache.SwapReq.missLatency::cpu.data    294271000                       # number of SwapReq miss ticks (Tick)
system.cpu.dcache.SwapReq.missLatency::total    294271000                       # number of SwapReq miss ticks (Tick)
system.cpu.dcache.SwapReq.accesses::cpu.data       145281                       # number of SwapReq accesses(hits+misses) (Count)
system.cpu.dcache.SwapReq.accesses::total       145281                       # number of SwapReq accesses(hits+misses) (Count)
system.cpu.dcache.SwapReq.missRate::cpu.data     0.029274                       # miss rate for SwapReq accesses (Ratio)
system.cpu.dcache.SwapReq.missRate::total     0.029274                       # miss rate for SwapReq accesses (Ratio)
system.cpu.dcache.SwapReq.avgMissLatency::cpu.data 69191.394310                       # average SwapReq miss latency ((Tick/Count))
system.cpu.dcache.SwapReq.avgMissLatency::total 69191.394310                       # average SwapReq miss latency ((Tick/Count))
system.cpu.dcache.SwapReq.mshrMisses::cpu.data         4253                       # number of SwapReq MSHR misses (Count)
system.cpu.dcache.SwapReq.mshrMisses::total         4253                       # number of SwapReq MSHR misses (Count)
system.cpu.dcache.SwapReq.mshrMissLatency::cpu.data    292144500                       # number of SwapReq MSHR miss ticks (Tick)
system.cpu.dcache.SwapReq.mshrMissLatency::total    292144500                       # number of SwapReq MSHR miss ticks (Tick)
system.cpu.dcache.SwapReq.mshrMissRate::cpu.data     0.029274                       # mshr miss rate for SwapReq accesses (Ratio)
system.cpu.dcache.SwapReq.mshrMissRate::total     0.029274                       # mshr miss rate for SwapReq accesses (Ratio)
system.cpu.dcache.SwapReq.avgMshrMissLatency::cpu.data 68691.394310                       # average SwapReq mshr miss latency ((Tick/Count))
system.cpu.dcache.SwapReq.avgMshrMissLatency::total 68691.394310                       # average SwapReq mshr miss latency ((Tick/Count))
system.cpu.dcache.WriteReq.hits::cpu.data      6436239                       # number of WriteReq hits (Count)
system.cpu.dcache.WriteReq.hits::total        6436239                       # number of WriteReq hits (Count)
system.cpu.dcache.WriteReq.misses::cpu.data      3744769                       # number of WriteReq misses (Count)
system.cpu.dcache.WriteReq.misses::total      3744769                       # number of WriteReq misses (Count)
system.cpu.dcache.WriteReq.missLatency::cpu.data 383214096500                       # number of WriteReq miss ticks (Tick)
system.cpu.dcache.WriteReq.missLatency::total 383214096500                       # number of WriteReq miss ticks (Tick)
system.cpu.dcache.WriteReq.accesses::cpu.data     10181008                       # number of WriteReq accesses(hits+misses) (Count)
system.cpu.dcache.WriteReq.accesses::total     10181008                       # number of WriteReq accesses(hits+misses) (Count)
system.cpu.dcache.WriteReq.missRate::cpu.data     0.367819                       # miss rate for WriteReq accesses (Ratio)
system.cpu.dcache.WriteReq.missRate::total     0.367819                       # miss rate for WriteReq accesses (Ratio)
system.cpu.dcache.WriteReq.avgMissLatency::cpu.data 102333.173688                       # average WriteReq miss latency ((Tick/Count))
system.cpu.dcache.WriteReq.avgMissLatency::total 102333.173688                       # average WriteReq miss latency ((Tick/Count))
system.cpu.dcache.WriteReq.mshrHits::cpu.data      3144575                       # number of WriteReq MSHR hits (Count)
system.cpu.dcache.WriteReq.mshrHits::total      3144575                       # number of WriteReq MSHR hits (Count)
system.cpu.dcache.WriteReq.mshrMisses::cpu.data       600194                       # number of WriteReq MSHR misses (Count)
system.cpu.dcache.WriteReq.mshrMisses::total       600194                       # number of WriteReq MSHR misses (Count)
system.cpu.dcache.WriteReq.mshrUncacheable::cpu.data            2                       # number of WriteReq MSHR uncacheable (Count)
system.cpu.dcache.WriteReq.mshrUncacheable::total            2                       # number of WriteReq MSHR uncacheable (Count)
system.cpu.dcache.WriteReq.mshrMissLatency::cpu.data  64166961500                       # number of WriteReq MSHR miss ticks (Tick)
system.cpu.dcache.WriteReq.mshrMissLatency::total  64166961500                       # number of WriteReq MSHR miss ticks (Tick)
system.cpu.dcache.WriteReq.mshrMissRate::cpu.data     0.058952                       # mshr miss rate for WriteReq accesses (Ratio)
system.cpu.dcache.WriteReq.mshrMissRate::total     0.058952                       # mshr miss rate for WriteReq accesses (Ratio)
system.cpu.dcache.WriteReq.avgMshrMissLatency::cpu.data 106910.368148                       # average WriteReq mshr miss latency ((Tick/Count))
system.cpu.dcache.WriteReq.avgMshrMissLatency::total 106910.368148                       # average WriteReq mshr miss latency ((Tick/Count))
system.cpu.dcache.power_state.pwrStateResidencyTicks::UNDEFINED  54526280000                       # Cumulative time (in ticks) in various power states (Tick)
system.cpu.dcache.tags.tagsInUse          2046.243417                       # Average ticks per tags in use ((Tick/Count))
system.cpu.dcache.tags.totalRefs              8851760                       # Total number of references to valid blocks. (Count)
system.cpu.dcache.tags.sampledRefs            1881783                       # Sample count of references to valid blocks. (Count)
system.cpu.dcache.tags.avgRefs               4.703922                       # Average number of references to valid blocks. ((Count/Count))
system.cpu.dcache.tags.warmupTick              169500                       # The tick when the warmup percentage was hit. (Tick)
system.cpu.dcache.tags.occupancies::cpu.data  2046.243417                       # Average occupied blocks per tick, per requestor ((Count/Tick))
system.cpu.dcache.tags.avgOccs::cpu.data     0.999142                       # Average percentage of cache occupancy ((Ratio/Tick))
system.cpu.dcache.tags.avgOccs::total        0.999142                       # Average percentage of cache occupancy ((Ratio/Tick))
system.cpu.dcache.tags.occupanciesTaskId::1024         2048                       # Occupied blocks per task id (Count)
system.cpu.dcache.tags.ageTaskId_1024::0          384                       # Occupied blocks per task id, per block age (Count)
system.cpu.dcache.tags.ageTaskId_1024::4         1664                       # Occupied blocks per task id, per block age (Count)
system.cpu.dcache.tags.ratioOccsTaskId::1024            1                       # Ratio of occupied blocks and all blocks, per task id (Ratio)
system.cpu.dcache.tags.tagAccesses          170976271                       # Number of tag accesses (Count)
system.cpu.dcache.tags.dataAccesses         170976271                       # Number of data accesses (Count)
system.cpu.dcache.tags.power_state.pwrStateResidencyTicks::UNDEFINED  54526280000                       # Cumulative time (in ticks) in various power states (Tick)
system.cpu.decode.idleCycles                   932755                       # Number of cycles decode is idle (Cycle)
system.cpu.decode.blockedCycles              98564431                       # Number of cycles decode is blocked (Cycle)
system.cpu.decode.runCycles                   7473634                       # Number of cycles decode is running (Cycle)
system.cpu.decode.unblockCycles               1998021                       # Number of cycles decode is unblocking (Cycle)
system.cpu.decode.squashCycles                  52887                       # Number of cycles decode is squashing (Cycle)
system.cpu.decode.branchResolved              3988020                       # Number of times decode resolved a branch (Count)
system.cpu.decode.branchMispred                   231                       # Number of times decode detected a branch misprediction (Count)
system.cpu.decode.decodedInsts               55722140                       # Number of instructions handled by decode (Count)
system.cpu.decode.squashedInsts                   891                       # Number of squashed instructions handled by decode (Count)
system.cpu.decode.mispredictedByPC                  0                       # Number of instructions that mispredicted due to pc (Count)
system.cpu.decode.mispredictedByNPC                 0                       # Number of instructions that mispredicted due to npc (Count)
system.cpu.dtb_walker_cache.demandHits::cpu.mmu.dtb.walker      7320640                       # number of demand (read+write) hits (Count)
system.cpu.dtb_walker_cache.demandHits::total      7320640                       # number of demand (read+write) hits (Count)
system.cpu.dtb_walker_cache.overallHits::cpu.mmu.dtb.walker      7320640                       # number of overall hits (Count)
system.cpu.dtb_walker_cache.overallHits::total      7320640                       # number of overall hits (Count)
system.cpu.dtb_walker_cache.demandMisses::cpu.mmu.dtb.walker       321695                       # number of demand (read+write) misses (Count)
system.cpu.dtb_walker_cache.demandMisses::total       321695                       # number of demand (read+write) misses (Count)
system.cpu.dtb_walker_cache.overallMisses::cpu.mmu.dtb.walker       321695                       # number of overall misses (Count)
system.cpu.dtb_walker_cache.overallMisses::total       321695                       # number of overall misses (Count)
system.cpu.dtb_walker_cache.demandMissLatency::cpu.mmu.dtb.walker  23100021500                       # number of demand (read+write) miss ticks (Tick)
system.cpu.dtb_walker_cache.demandMissLatency::total  23100021500                       # number of demand (read+write) miss ticks (Tick)
system.cpu.dtb_walker_cache.overallMissLatency::cpu.mmu.dtb.walker  23100021500                       # number of overall miss ticks (Tick)
system.cpu.dtb_walker_cache.overallMissLatency::total  23100021500                       # number of overall miss ticks (Tick)
system.cpu.dtb_walker_cache.demandAccesses::cpu.mmu.dtb.walker      7642335                       # number of demand (read+write) accesses (Count)
system.cpu.dtb_walker_cache.demandAccesses::total      7642335                       # number of demand (read+write) accesses (Count)
system.cpu.dtb_walker_cache.overallAccesses::cpu.mmu.dtb.walker      7642335                       # number of overall (read+write) accesses (Count)
system.cpu.dtb_walker_cache.overallAccesses::total      7642335                       # number of overall (read+write) accesses (Count)
system.cpu.dtb_walker_cache.demandMissRate::cpu.mmu.dtb.walker     0.042094                       # miss rate for demand accesses (Ratio)
system.cpu.dtb_walker_cache.demandMissRate::total     0.042094                       # miss rate for demand accesses (Ratio)
system.cpu.dtb_walker_cache.overallMissRate::cpu.mmu.dtb.walker     0.042094                       # miss rate for overall accesses (Ratio)
system.cpu.dtb_walker_cache.overallMissRate::total     0.042094                       # miss rate for overall accesses (Ratio)
system.cpu.dtb_walker_cache.demandAvgMissLatency::cpu.mmu.dtb.walker 71807.213354                       # average overall miss latency in ticks ((Tick/Count))
system.cpu.dtb_walker_cache.demandAvgMissLatency::total 71807.213354                       # average overall miss latency in ticks ((Tick/Count))
system.cpu.dtb_walker_cache.overallAvgMissLatency::cpu.mmu.dtb.walker 71807.213354                       # average overall miss latency ((Tick/Count))
system.cpu.dtb_walker_cache.overallAvgMissLatency::total 71807.213354                       # average overall miss latency ((Tick/Count))
system.cpu.dtb_walker_cache.blockedCycles::no_mshrs            0                       # number of cycles access was blocked (Cycle)
system.cpu.dtb_walker_cache.blockedCycles::no_targets            0                       # number of cycles access was blocked (Cycle)
system.cpu.dtb_walker_cache.blockedCauses::no_mshrs            0                       # number of times access was blocked (Count)
system.cpu.dtb_walker_cache.blockedCauses::no_targets            0                       # number of times access was blocked (Count)
system.cpu.dtb_walker_cache.avgBlocked::no_mshrs          nan                       # average number of cycles each access was blocked ((Cycle/Count))
system.cpu.dtb_walker_cache.avgBlocked::no_targets          nan                       # average number of cycles each access was blocked ((Cycle/Count))
system.cpu.dtb_walker_cache.writebacks::writebacks           11                       # number of writebacks (Count)
system.cpu.dtb_walker_cache.writebacks::total           11                       # number of writebacks (Count)
system.cpu.dtb_walker_cache.demandMshrMisses::cpu.mmu.dtb.walker       321695                       # number of demand (read+write) MSHR misses (Count)
system.cpu.dtb_walker_cache.demandMshrMisses::total       321695                       # number of demand (read+write) MSHR misses (Count)
system.cpu.dtb_walker_cache.overallMshrMisses::cpu.mmu.dtb.walker       321695                       # number of overall MSHR misses (Count)
system.cpu.dtb_walker_cache.overallMshrMisses::total       321695                       # number of overall MSHR misses (Count)
system.cpu.dtb_walker_cache.demandMshrMissLatency::cpu.mmu.dtb.walker  22778326500                       # number of demand (read+write) MSHR miss ticks (Tick)
system.cpu.dtb_walker_cache.demandMshrMissLatency::total  22778326500                       # number of demand (read+write) MSHR miss ticks (Tick)
system.cpu.dtb_walker_cache.overallMshrMissLatency::cpu.mmu.dtb.walker  22778326500                       # number of overall MSHR miss ticks (Tick)
system.cpu.dtb_walker_cache.overallMshrMissLatency::total  22778326500                       # number of overall MSHR miss ticks (Tick)
system.cpu.dtb_walker_cache.demandMshrMissRate::cpu.mmu.dtb.walker     0.042094                       # mshr miss ratio for demand accesses (Ratio)
system.cpu.dtb_walker_cache.demandMshrMissRate::total     0.042094                       # mshr miss ratio for demand accesses (Ratio)
system.cpu.dtb_walker_cache.overallMshrMissRate::cpu.mmu.dtb.walker     0.042094                       # mshr miss ratio for overall accesses (Ratio)
system.cpu.dtb_walker_cache.overallMshrMissRate::total     0.042094                       # mshr miss ratio for overall accesses (Ratio)
system.cpu.dtb_walker_cache.demandAvgMshrMissLatency::cpu.mmu.dtb.walker 70807.213354                       # average overall mshr miss latency ((Tick/Count))
system.cpu.dtb_walker_cache.demandAvgMshrMissLatency::total 70807.213354                       # average overall mshr miss latency ((Tick/Count))
system.cpu.dtb_walker_cache.overallAvgMshrMissLatency::cpu.mmu.dtb.walker 70807.213354                       # average overall mshr miss latency ((Tick/Count))
system.cpu.dtb_walker_cache.overallAvgMshrMissLatency::total 70807.213354                       # average overall mshr miss latency ((Tick/Count))
system.cpu.dtb_walker_cache.replacements       319872                       # number of replacements (Count)
system.cpu.dtb_walker_cache.ReadReq.hits::cpu.mmu.dtb.walker      7320640                       # number of ReadReq hits (Count)
system.cpu.dtb_walker_cache.ReadReq.hits::total      7320640                       # number of ReadReq hits (Count)
system.cpu.dtb_walker_cache.ReadReq.misses::cpu.mmu.dtb.walker       321695                       # number of ReadReq misses (Count)
system.cpu.dtb_walker_cache.ReadReq.misses::total       321695                       # number of ReadReq misses (Count)
system.cpu.dtb_walker_cache.ReadReq.missLatency::cpu.mmu.dtb.walker  23100021500                       # number of ReadReq miss ticks (Tick)
system.cpu.dtb_walker_cache.ReadReq.missLatency::total  23100021500                       # number of ReadReq miss ticks (Tick)
system.cpu.dtb_walker_cache.ReadReq.accesses::cpu.mmu.dtb.walker      7642335                       # number of ReadReq accesses(hits+misses) (Count)
system.cpu.dtb_walker_cache.ReadReq.accesses::total      7642335                       # number of ReadReq accesses(hits+misses) (Count)
system.cpu.dtb_walker_cache.ReadReq.missRate::cpu.mmu.dtb.walker     0.042094                       # miss rate for ReadReq accesses (Ratio)
system.cpu.dtb_walker_cache.ReadReq.missRate::total     0.042094                       # miss rate for ReadReq accesses (Ratio)
system.cpu.dtb_walker_cache.ReadReq.avgMissLatency::cpu.mmu.dtb.walker 71807.213354                       # average ReadReq miss latency ((Tick/Count))
system.cpu.dtb_walker_cache.ReadReq.avgMissLatency::total 71807.213354                       # average ReadReq miss latency ((Tick/Count))
system.cpu.dtb_walker_cache.ReadReq.mshrMisses::cpu.mmu.dtb.walker       321695                       # number of ReadReq MSHR misses (Count)
system.cpu.dtb_walker_cache.ReadReq.mshrMisses::total       321695                       # number of ReadReq MSHR misses (Count)
system.cpu.dtb_walker_cache.ReadReq.mshrMissLatency::cpu.mmu.dtb.walker  22778326500                       # number of ReadReq MSHR miss ticks (Tick)
system.cpu.dtb_walker_cache.ReadReq.mshrMissLatency::total  22778326500                       # number of ReadReq MSHR miss ticks (Tick)
system.cpu.dtb_walker_cache.ReadReq.mshrMissRate::cpu.mmu.dtb.walker     0.042094                       # mshr miss rate for ReadReq accesses (Ratio)
system.cpu.dtb_walker_cache.ReadReq.mshrMissRate::total     0.042094                       # mshr miss rate for ReadReq accesses (Ratio)
system.cpu.dtb_walker_cache.ReadReq.avgMshrMissLatency::cpu.mmu.dtb.walker 70807.213354                       # average ReadReq mshr miss latency ((Tick/Count))
system.cpu.dtb_walker_cache.ReadReq.avgMshrMissLatency::total 70807.213354                       # average ReadReq mshr miss latency ((Tick/Count))
system.cpu.dtb_walker_cache.power_state.pwrStateResidencyTicks::UNDEFINED  54526280000                       # Cumulative time (in ticks) in various power states (Tick)
system.cpu.dtb_walker_cache.tags.tagsInUse    15.958263                       # Average ticks per tags in use ((Tick/Count))
system.cpu.dtb_walker_cache.tags.totalRefs      7453105                       # Total number of references to valid blocks. (Count)
system.cpu.dtb_walker_cache.tags.sampledRefs       321679                       # Sample count of references to valid blocks. (Count)
system.cpu.dtb_walker_cache.tags.avgRefs    23.169386                       # Average number of references to valid blocks. ((Count/Count))
system.cpu.dtb_walker_cache.tags.warmupTick      1725500                       # The tick when the warmup percentage was hit. (Tick)
system.cpu.dtb_walker_cache.tags.occupancies::cpu.mmu.dtb.walker    15.958263                       # Average occupied blocks per tick, per requestor ((Count/Tick))
system.cpu.dtb_walker_cache.tags.avgOccs::cpu.mmu.dtb.walker     0.997391                       # Average percentage of cache occupancy ((Ratio/Tick))
system.cpu.dtb_walker_cache.tags.avgOccs::total     0.997391                       # Average percentage of cache occupancy ((Ratio/Tick))
system.cpu.dtb_walker_cache.tags.occupanciesTaskId::1024           16                       # Occupied blocks per task id (Count)
system.cpu.dtb_walker_cache.tags.ageTaskId_1024::0            5                       # Occupied blocks per task id, per block age (Count)
system.cpu.dtb_walker_cache.tags.ageTaskId_1024::1           10                       # Occupied blocks per task id, per block age (Count)
system.cpu.dtb_walker_cache.tags.ageTaskId_1024::3            1                       # Occupied blocks per task id, per block age (Count)
system.cpu.dtb_walker_cache.tags.ratioOccsTaskId::1024            1                       # Ratio of occupied blocks and all blocks, per task id (Ratio)
system.cpu.dtb_walker_cache.tags.tagAccesses     15606365                       # Number of tag accesses (Count)
system.cpu.dtb_walker_cache.tags.dataAccesses     15606365                       # Number of data accesses (Count)
system.cpu.dtb_walker_cache.tags.power_state.pwrStateResidencyTicks::UNDEFINED  54526280000                       # Cumulative time (in ticks) in various power states (Tick)
system.cpu.fetch.icacheStallCycles              53824                       # Number of cycles fetch is stalled on an Icache miss (Cycle)
system.cpu.fetch.insts                       57288852                       # Number of instructions fetch has processed (Count)
system.cpu.fetch.branches                     7502391                       # Number of branches that fetch encountered (Count)
system.cpu.fetch.predictedBranches            4745034                       # Number of branches that fetch has predicted taken (Count)
system.cpu.fetch.cycles                     108733144                       # Number of cycles fetch has run and was not squashing or blocked (Cycle)
system.cpu.fetch.squashCycles                  106230                       # Number of cycles fetch has spent squashing (Cycle)
system.cpu.fetch.tlbCycles                        316                       # Number of cycles fetch has spent waiting for tlb (Cycle)
system.cpu.fetch.miscStallCycles                 2504                       # Number of cycles fetch has spent waiting on interrupts, or bad addresses, or out of MSHRs (Cycle)
system.cpu.fetch.pendingTrapStallCycles        178028                       # Number of stall cycles due to pending traps (Cycle)
system.cpu.fetch.icacheWaitRetryStallCycles          797                       # Number of stall cycles due to full MSHR (Cycle)
system.cpu.fetch.cacheLines                   6165647                       # Number of cache lines fetched (Count)
system.cpu.fetch.icacheSquashes                   255                       # Number of outstanding Icache misses that were squashed (Count)
system.cpu.fetch.tlbSquashes                        7                       # Number of outstanding ITLB misses that were squashed (Count)
system.cpu.fetch.nisnDist::samples          109021728                       # Number of instructions fetched each cycle (Total) (Count)
system.cpu.fetch.nisnDist::mean              0.527605                       # Number of instructions fetched each cycle (Total) (Count)
system.cpu.fetch.nisnDist::stdev             1.732107                       # Number of instructions fetched each cycle (Total) (Count)
system.cpu.fetch.nisnDist::underflows               0      0.00%      0.00% # Number of instructions fetched each cycle (Total) (Count)
system.cpu.fetch.nisnDist::0                 97381520     89.32%     89.32% # Number of instructions fetched each cycle (Total) (Count)
system.cpu.fetch.nisnDist::1                  1209590      1.11%     90.43% # Number of instructions fetched each cycle (Total) (Count)
system.cpu.fetch.nisnDist::2                  1098095      1.01%     91.44% # Number of instructions fetched each cycle (Total) (Count)
system.cpu.fetch.nisnDist::3                  1778138      1.63%     93.07% # Number of instructions fetched each cycle (Total) (Count)
system.cpu.fetch.nisnDist::4                  1483209      1.36%     94.43% # Number of instructions fetched each cycle (Total) (Count)
system.cpu.fetch.nisnDist::5                  1287108      1.18%     95.61% # Number of instructions fetched each cycle (Total) (Count)
system.cpu.fetch.nisnDist::6                   824868      0.76%     96.37% # Number of instructions fetched each cycle (Total) (Count)
system.cpu.fetch.nisnDist::7                   210915      0.19%     96.56% # Number of instructions fetched each cycle (Total) (Count)
system.cpu.fetch.nisnDist::8                  3748285      3.44%    100.00% # Number of instructions fetched each cycle (Total) (Count)
system.cpu.fetch.nisnDist::overflows                0      0.00%    100.00% # Number of instructions fetched each cycle (Total) (Count)
system.cpu.fetch.nisnDist::min_value                0                       # Number of instructions fetched each cycle (Total) (Count)
system.cpu.fetch.nisnDist::max_value                8                       # Number of instructions fetched each cycle (Total) (Count)
system.cpu.fetch.nisnDist::total            109021728                       # Number of instructions fetched each cycle (Total) (Count)
system.cpu.fetch.branchRate                  0.068796                       # Number of branch fetches per cycle (Ratio)
system.cpu.fetch.rate                        0.525332                       # Number of inst fetches per cycle ((Count/Cycle))
system.cpu.icache.demandHits::cpu.inst        6165106                       # number of demand (read+write) hits (Count)
system.cpu.icache.demandHits::total           6165106                       # number of demand (read+write) hits (Count)
system.cpu.icache.overallHits::cpu.inst       6165106                       # number of overall hits (Count)
system.cpu.icache.overallHits::total          6165106                       # number of overall hits (Count)
system.cpu.icache.demandMisses::cpu.inst          535                       # number of demand (read+write) misses (Count)
system.cpu.icache.demandMisses::total             535                       # number of demand (read+write) misses (Count)
system.cpu.icache.overallMisses::cpu.inst          535                       # number of overall misses (Count)
system.cpu.icache.overallMisses::total            535                       # number of overall misses (Count)
system.cpu.icache.demandMissLatency::cpu.inst     35309487                       # number of demand (read+write) miss ticks (Tick)
system.cpu.icache.demandMissLatency::total     35309487                       # number of demand (read+write) miss ticks (Tick)
system.cpu.icache.overallMissLatency::cpu.inst     35309487                       # number of overall miss ticks (Tick)
system.cpu.icache.overallMissLatency::total     35309487                       # number of overall miss ticks (Tick)
system.cpu.icache.demandAccesses::cpu.inst      6165641                       # number of demand (read+write) accesses (Count)
system.cpu.icache.demandAccesses::total       6165641                       # number of demand (read+write) accesses (Count)
system.cpu.icache.overallAccesses::cpu.inst      6165641                       # number of overall (read+write) accesses (Count)
system.cpu.icache.overallAccesses::total      6165641                       # number of overall (read+write) accesses (Count)
system.cpu.icache.demandMissRate::cpu.inst     0.000087                       # miss rate for demand accesses (Ratio)
system.cpu.icache.demandMissRate::total      0.000087                       # miss rate for demand accesses (Ratio)
system.cpu.icache.overallMissRate::cpu.inst     0.000087                       # miss rate for overall accesses (Ratio)
system.cpu.icache.overallMissRate::total     0.000087                       # miss rate for overall accesses (Ratio)
system.cpu.icache.demandAvgMissLatency::cpu.inst 65999.041121                       # average overall miss latency in ticks ((Tick/Count))
[...]
system.mem_ctrls.dram.bytesPerActivate::1024-1151        66027     11.99%    100.00% # Bytes accessed per row activation (Byte)
system.mem_ctrls.dram.bytesPerActivate::total       550910                       # Bytes accessed per row activation (Byte)
system.mem_ctrls.dram.bytesRead             120039168                       # Total bytes read (Byte)
system.mem_ctrls.dram.bytesWritten          101428928                       # Total bytes written (Byte)
system.mem_ctrls.dram.avgRdBW             2294.923606                       # Average DRAM read bandwidth in MiBytes/s ((Byte/Second))
system.mem_ctrls.dram.avgWrBW             1939.130744                       # Average DRAM write bandwidth in MiBytes/s ((Byte/Second))
system.mem_ctrls.dram.peakBW                 19207.00                       # Theoretical peak bandwidth in MiByte/s ((Byte/Second))
system.mem_ctrls.dram.busUtil                   22.04                       # Data bus utilization in percentage (Ratio)
system.mem_ctrls.dram.busUtilRead               11.95                       # Data bus utilization in percentage for reads (Ratio)
system.mem_ctrls.dram.busUtilWrite              10.10                       # Data bus utilization in percentage for writes (Ratio)
system.mem_ctrls.dram.pageHitRate               84.08                       # Row buffer hit rate, read and write combined (Ratio)
system.mem_ctrls.dram.power_state.pwrStateResidencyTicks::UNDEFINED  52306389500                       # Cumulative time (in ticks) in various power states (Tick)
system.mem_ctrls.dram.rank0.actEnergy    900530283.744012                       # Energy for activate commands per rank (pJ) (Joule)
system.mem_ctrls.dram.rank0.preEnergy    1197255905.999985                       # Energy for precharge commands per rank (pJ) (Joule)
system.mem_ctrls.dram.rank0.readEnergy   4257335216.467232                       # Energy for read commands per rank (pJ) (Joule)
system.mem_ctrls.dram.rank0.writeEnergy  2977191127.007993                       # Energy for write commands per rank (pJ) (Joule)
system.mem_ctrls.dram.rank0.refreshEnergy 9306966899.529680                       # Energy for refresh commands per rank (pJ) (Joule)
system.mem_ctrls.dram.rank0.actBackEnergy 43746426938.995483                       # Energy for active background per rank (pJ) (Joule)
system.mem_ctrls.dram.rank0.preBackEnergy 532536979.967965                       # Energy for precharge background per rank (pJ) (Joule)
system.mem_ctrls.dram.rank0.actPowerDownEnergy            0                       # Energy for active power-down per rank (pJ) (Joule)
system.mem_ctrls.dram.rank0.prePowerDownEnergy            0                       # Energy for precharge power-down per rank (pJ) (Joule)
system.mem_ctrls.dram.rank0.selfRefreshEnergy            0                       # Energy for self refresh per rank (pJ) (Joule)
system.mem_ctrls.dram.rank0.totalEnergy  62918243351.712036                       # Total energy per rank (pJ) (Joule)
system.mem_ctrls.dram.rank0.averagePower  1202.878730                       # Core power per rank (mW) (Watt)
system.mem_ctrls.dram.rank0.totalIdleTime            0                       # Total Idle time Per DRAM Rank (Tick)
system.mem_ctrls.dram.rank0.pwrStateTime::IDLE    590760834                       # Time in different power states (Tick)
system.mem_ctrls.dram.rank0.pwrStateTime::REF   2351300000                       # Time in different power states (Tick)
system.mem_ctrls.dram.rank0.pwrStateTime::SREF            0                       # Time in different power states (Tick)
system.mem_ctrls.dram.rank0.pwrStateTime::PRE_PDN            0                       # Time in different power states (Tick)
system.mem_ctrls.dram.rank0.pwrStateTime::ACT  49364328666                       # Time in different power states (Tick)
system.mem_ctrls.dram.rank0.pwrStateTime::ACT_PDN            0                       # Time in different power states (Tick)
system.mem_ctrls.dram.rank1.actEnergy    817630736.831995                       # Energy for activate commands per rank (pJ) (Joule)
system.mem_ctrls.dram.rank1.preEnergy    1087004704.127997                       # Energy for precharge commands per rank (pJ) (Joule)
system.mem_ctrls.dram.rank1.readEnergy   3632083049.414418                       # Energy for read commands per rank (pJ) (Joule)
system.mem_ctrls.dram.rank1.writeEnergy  2979374813.183991                       # Energy for write commands per rank (pJ) (Joule)
system.mem_ctrls.dram.rank1.refreshEnergy 9306966899.529680                       # Energy for refresh commands per rank (pJ) (Joule)
system.mem_ctrls.dram.rank1.actBackEnergy 43109216425.195145                       # Energy for active background per rank (pJ) (Joule)
system.mem_ctrls.dram.rank1.preBackEnergy 1022145058.368037                       # Energy for precharge background per rank (pJ) (Joule)
system.mem_ctrls.dram.rank1.actPowerDownEnergy            0                       # Energy for active power-down per rank (pJ) (Joule)
system.mem_ctrls.dram.rank1.prePowerDownEnergy            0                       # Energy for precharge power-down per rank (pJ) (Joule)
system.mem_ctrls.dram.rank1.selfRefreshEnergy            0                       # Energy for self refresh per rank (pJ) (Joule)
system.mem_ctrls.dram.rank1.totalEnergy  61954421686.651169                       # Total energy per rank (pJ) (Joule)
system.mem_ctrls.dram.rank1.averagePower  1184.452268                       # Core power per rank (mW) (Watt)
system.mem_ctrls.dram.rank1.totalIdleTime            0                       # Total Idle time Per DRAM Rank (Tick)
system.mem_ctrls.dram.rank1.pwrStateTime::IDLE   1361291666                       # Time in different power states (Tick)
system.mem_ctrls.dram.rank1.pwrStateTime::REF   2351300000                       # Time in different power states (Tick)
system.mem_ctrls.dram.rank1.pwrStateTime::SREF            0                       # Time in different power states (Tick)
system.mem_ctrls.dram.rank1.pwrStateTime::PRE_PDN            0                       # Time in different power states (Tick)
system.mem_ctrls.dram.rank1.pwrStateTime::ACT  48593797834                       # Time in different power states (Tick)
system.mem_ctrls.dram.rank1.pwrStateTime::ACT_PDN            0                       # Time in different power states (Tick)
system.mem_ctrls.power_state.pwrStateResidencyTicks::UNDEFINED  52306389500                       # Cumulative time (in ticks) in various power states (Tick)
system.membus.transDist::ReadResp             1342202                       # Transaction distribution (Count)
system.membus.transDist::WritebackDirty        654614                       # Transaction distribution (Count)
system.membus.transDist::WritebackClean        930203                       # Transaction distribution (Count)
system.membus.transDist::CleanEvict            279535                       # Transaction distribution (Count)
system.membus.transDist::UpgradeReq              7573                       # Transaction distribution (Count)
system.membus.transDist::ReadExReq             533418                       # Transaction distribution (Count)
system.membus.transDist::ReadExResp            533418                       # Transaction distribution (Count)
system.membus.transDist::ReadCleanReq         1342207                       # Transaction distribution (Count)
system.membus.transDist::BadAddressError            3                       # Transaction distribution (Count)
system.membus.transDist::InvalidateReq             98                       # Transaction distribution (Count)
system.membus.pktCount_system.l2.mem_side_port::system.mem_ctrls.port      5623265                       # Packet count per connected requestor and responder (Count)
system.membus.pktCount_system.l2.mem_side_port::system.membus.badaddr_responder.pio            6                       # Packet count per connected requestor and responder (Count)
system.membus.pktCount_system.l2.mem_side_port::total      5623271                       # Packet count per connected requestor and responder (Count)
system.membus.pktCount::total                 5623271                       # Packet count per connected requestor and responder (Count)
system.membus.pktSize_system.l2.mem_side_port::system.mem_ctrls.port    221467968                       # Cumulative packet size per connected requestor and responder (Byte)
system.membus.pktSize_system.l2.mem_side_port::total    221467968                       # Cumulative packet size per connected requestor and responder (Byte)
system.membus.pktSize::total                221467968                       # Cumulative packet size per connected requestor and responder (Byte)
system.membus.snoops                              280                       # Total snoops (Count)
system.membus.snoopTraffic                          0                       # Total snoop traffic (Byte)
system.membus.snoopFanout::samples            1883296                       # Request fanout histogram (Count)
system.membus.snoopFanout::mean                     0                       # Request fanout histogram (Count)
system.membus.snoopFanout::stdev                    0                       # Request fanout histogram (Count)
system.membus.snoopFanout::underflows               0      0.00%      0.00% # Request fanout histogram (Count)
system.membus.snoopFanout::0                  1883296    100.00%    100.00% # Request fanout histogram (Count)
system.membus.snoopFanout::1                        0      0.00%    100.00% # Request fanout histogram (Count)
system.membus.snoopFanout::2                        0      0.00%    100.00% # Request fanout histogram (Count)
system.membus.snoopFanout::overflows                0      0.00%    100.00% # Request fanout histogram (Count)
system.membus.snoopFanout::min_value                0                       # Request fanout histogram (Count)
system.membus.snoopFanout::max_value                0                       # Request fanout histogram (Count)
system.membus.snoopFanout::total              1883296                       # Request fanout histogram (Count)
system.membus.badaddr_responder.power_state.pwrStateResidencyTicks::UNDEFINED  52306389500                       # Cumulative time (in ticks) in various power states (Tick)
system.membus.power_state.pwrStateResidencyTicks::UNDEFINED  52306389500                       # Cumulative time (in ticks) in various power states (Tick)
system.membus.reqLayer1.occupancy         10404386500                       # Layer occupancy (ticks) (Tick)
system.membus.reqLayer1.utilization               0.2                       # Layer utilization (Ratio)
system.membus.reqLayer2.occupancy                4000                       # Layer occupancy (ticks) (Tick)
system.membus.reqLayer2.utilization               0.0                       # Layer utilization (Ratio)
system.membus.respLayer2.occupancy         9755264206                       # Layer occupancy (ticks) (Tick)
system.membus.respLayer2.utilization              0.2                       # Layer utilization (Ratio)
system.membus.snoop_filter.totRequests        3747648                       # Total number of requests made to the snoop filter. (Count)
system.membus.snoop_filter.hitSingleRequests      1882572                       # Number of requests hitting in the snoop filter with a single holder of the requested data. (Count)
system.membus.snoop_filter.hitMultiRequests            0                       # Number of requests hitting in the snoop filter with multiple (>1) holders of the requested data. (Count)
system.membus.snoop_filter.totSnoops                0                       # Total number of snoops made to the snoop filter. (Count)
system.membus.snoop_filter.hitSingleSnoops            0                       # Number of snoops hitting in the snoop filter with a single holder of the requested data. (Count)
system.membus.snoop_filter.hitMultiSnoops            0                       # Number of snoops hitting in the snoop filter with multiple (>1) holders of the requested data. (Count)
system.mmcs.power_state.pwrStateResidencyTicks::UNDEFINED  52306389500                       # Cumulative time (in ticks) in various power states (Tick)
system.tol2bus.transDist::ReadResp            1357803                       # Transaction distribution (Count)
system.tol2bus.transDist::WritebackDirty      1314001                       # Transaction distribution (Count)
system.tol2bus.transDist::WritebackClean      1863936                       # Transaction distribution (Count)
system.tol2bus.transDist::CleanEvict           293914                       # Transaction distribution (Count)
system.tol2bus.transDist::UpgradeReq             7573                       # Transaction distribution (Count)
system.tol2bus.transDist::UpgradeResp            7573                       # Transaction distribution (Count)
system.tol2bus.transDist::ReadExReq            536789                       # Transaction distribution (Count)
system.tol2bus.transDist::ReadExResp           536789                       # Transaction distribution (Count)
system.tol2bus.transDist::ReadCleanReq            120                       # Transaction distribution (Count)
system.tol2bus.transDist::ReadSharedReq       1357686                       # Transaction distribution (Count)
system.tol2bus.transDist::BadAddressError            3                       # Transaction distribution (Count)
system.tol2bus.transDist::InvalidateReq           120                       # Transaction distribution (Count)
system.tol2bus.transDist::InvalidateResp          120                       # Transaction distribution (Count)
system.tol2bus.pktCount_system.cpu.icache.mem_side_port::system.l2.cpu_side_port          240                       # Packet count per connected requestor and responder (Count)
system.tol2bus.pktCount_system.cpu.dcache.mem_side_port::system.l2.cpu_side_port      4793855                       # Packet count per connected requestor and responder (Count)
system.tol2bus.pktCount_system.cpu.itb_walker_cache.mem_side_port::system.l2.cpu_side_port           12                       # Packet count per connected requestor and responder (Count)
system.tol2bus.pktCount_system.cpu.dtb_walker_cache.mem_side_port::system.l2.cpu_side_port       885955                       # Packet count per connected requestor and responder (Count)
system.tol2bus.pktCount::total                5680062                       # Packet count per connected requestor and responder (Count)
system.tol2bus.pktSize_system.cpu.icache.mem_side_port::system.l2.cpu_side_port         7680                       # Cumulative packet size per connected requestor and responder (Byte)
system.tol2bus.pktSize_system.cpu.dcache.mem_side_port::system.l2.cpu_side_port    203889408                       # Cumulative packet size per connected requestor and responder (Byte)
system.tol2bus.pktSize_system.cpu.itb_walker_cache.mem_side_port::system.l2.cpu_side_port          256                       # Cumulative packet size per connected requestor and responder (Byte)
system.tol2bus.pktSize_system.cpu.dtb_walker_cache.mem_side_port::system.l2.cpu_side_port     18595072                       # Cumulative packet size per connected requestor and responder (Byte)
system.tol2bus.pktSize::total               222492416                       # Cumulative packet size per connected requestor and responder (Byte)
system.tol2bus.snoops                         1596365                       # Total snoops (Count)
system.tol2bus.snoopTraffic                 102149440                       # Total snoop traffic (Byte)
system.tol2bus.snoopFanout::samples           3487109                       # Request fanout histogram (Count)
system.tol2bus.snoopFanout::mean             0.011251                       # Request fanout histogram (Count)
system.tol2bus.snoopFanout::stdev            0.129199                       # Request fanout histogram (Count)
system.tol2bus.snoopFanout::underflows              0      0.00%      0.00% # Request fanout histogram (Count)
system.tol2bus.snoopFanout::0                 3457583     99.15%     99.15% # Request fanout histogram (Count)
system.tol2bus.snoopFanout::1                   19818      0.57%     99.72% # Request fanout histogram (Count)
system.tol2bus.snoopFanout::2                    9708      0.28%    100.00% # Request fanout histogram (Count)
system.tol2bus.snoopFanout::3                       0      0.00%    100.00% # Request fanout histogram (Count)
system.tol2bus.snoopFanout::4                       0      0.00%    100.00% # Request fanout histogram (Count)
system.tol2bus.snoopFanout::overflows               0      0.00%    100.00% # Request fanout histogram (Count)
system.tol2bus.snoopFanout::min_value               0                       # Request fanout histogram (Count)
system.tol2bus.snoopFanout::max_value               2                       # Request fanout histogram (Count)
system.tol2bus.snoopFanout::total             3487109                       # Request fanout histogram (Count)
system.tol2bus.power_state.pwrStateResidencyTicks::UNDEFINED  52306389500                       # Cumulative time (in ticks) in various power states (Tick)
system.tol2bus.reqLayer0.occupancy         2691254967                       # Layer occupancy (ticks) (Tick)
system.tol2bus.reqLayer0.utilization              0.1                       # Layer utilization (Ratio)
system.tol2bus.respLayer0.occupancy            120000                       # Layer occupancy (ticks) (Tick)
system.tol2bus.respLayer0.utilization             0.0                       # Layer utilization (Ratio)
system.tol2bus.respLayer1.occupancy        1596825487                       # Layer occupancy (ticks) (Tick)
system.tol2bus.respLayer1.utilization             0.0                       # Layer utilization (Ratio)
system.tol2bus.respLayer2.occupancy              4000                       # Layer occupancy (ticks) (Tick)
system.tol2bus.respLayer2.utilization             0.0                       # Layer utilization (Ratio)
system.tol2bus.respLayer3.occupancy         301510972                       # Layer occupancy (ticks) (Tick)
system.tol2bus.respLayer3.utilization             0.0                       # Layer utilization (Ratio)
system.tol2bus.snoop_filter.totRequests       3789356                       # Total number of requests made to the snoop filter. (Count)
system.tol2bus.snoop_filter.hitSingleRequests      1877660                       # Number of requests hitting in the snoop filter with a single holder of the requested data. (Count)
system.tol2bus.snoop_filter.hitMultiRequests        38943                       # Number of requests hitting in the snoop filter with multiple (>1) holders of the requested data. (Count)
system.tol2bus.snoop_filter.totSnoops               5                       # Total number of snoops made to the snoop filter. (Count)
system.tol2bus.snoop_filter.hitSingleSnoops            2                       # Number of snoops hitting in the snoop filter with a single holder of the requested data. (Count)
system.tol2bus.snoop_filter.hitMultiSnoops            3                       # Number of snoops hitting in the snoop filter with multiple (>1) holders of the requested data. (Count)
system.uartlite.power_state.pwrStateResidencyTicks::UNDEFINED  52306389500                       # Cumulative time (in ticks) in various power states (Tick)
system.voltage_domain.voltage                       1                       # Voltage in Volts (Volt)
system.workload.inst.arm                            0                       # number of arm instructions executed (Count)
system.workload.inst.quiesce                        0                       # number of quiesce instructions executed (Count)

---------- End Simulation Statistics   ----------
