
---------- Begin Simulation Statistics ----------
simSeconds                                   0.036528                       # Number of seconds simulated (Second)
simTicks                                  36528426000                       # Number of ticks simulated (Tick)
finalTick                                 36528426000                       # Number of ticks from beginning of simulation (restored from checkpoints and never reset) (Tick)
simFreq                                  1000000000000                       # The number of ticks per simulated second ((Tick/Second))
hostSeconds                                    382.29                       # Real time elapsed on the host (Second)
hostTickRate                                 95551413                       # The number of ticks simulated per host second (ticks/s) ((Tick/Second))
hostMemory                                   19943044                       # Number of bytes of host memory used (Byte)
simInsts                                     10000000                       # Number of instructions simulated (Count)
simOps                                       10000000                       # Number of ops (including micro ops) simulated (Count)
hostInstRate                                    26158                       # Simulator instruction rate (inst/s) ((Count/Second))
hostOpRate                                      26158                       # Simulator op (including micro ops) rate (op/s) ((Count/Second))
system.bridge.power_state.pwrStateResidencyTicks::UNDEFINED  36528426000                       # Cumulative time (in ticks) in various power states (Tick)
system.clk_domain.clock                          1000                       # Clock period in ticks (Tick)
system.cpu.numCycles                         73056853                       # Number of cpu cycles simulated (Cycle)
system.cpu.numWorkItemsStarted                      0                       # Number of work items this cpu started (Count)
system.cpu.numWorkItemsCompleted                    0                       # Number of work items this cpu completed (Count)
system.cpu.instsAdded                        10569607                       # Number of instructions added to the IQ (excludes non-spec) (Count)
system.cpu.nonSpecInstsAdded                       33                       # Number of non-speculative instructions added to the IQ (Count)
system.cpu.instsIssued                       10563704                       # Number of instructions issued (Count)
system.cpu.squashedInstsIssued                  10348                       # Number of squashed instructions issued (Count)
system.cpu.squashedInstsExamined               569628                       # Number of squashed instructions iterated over during squash; mainly for profiling (Count)
system.cpu.squashedOperandsExamined            433217                       # Number of squashed operands that are examined and possibly removed from graph (Count)
system.cpu.numIssuedDist::samples            73043506                       # Number of insts issued each cycle (Count)
system.cpu.numIssuedDist::mean               0.144622                       # Number of insts issued each cycle (Count)
system.cpu.numIssuedDist::stdev              0.722708                       # Number of insts issued each cycle (Count)
system.cpu.numIssuedDist::underflows                0      0.00%      0.00% # Number of insts issued each cycle (Count)
system.cpu.numIssuedDist::0                  68503691     93.78%     93.78% # Number of insts issued each cycle (Count)
system.cpu.numIssuedDist::1                   2395390      3.28%     97.06% # Number of insts issued each cycle (Count)
system.cpu.numIssuedDist::2                    655649      0.90%     97.96% # Number of insts issued each cycle (Count)
system.cpu.numIssuedDist::3                    400138      0.55%     98.51% # Number of insts issued each cycle (Count)
system.cpu.numIssuedDist::4                    438621      0.60%     99.11% # Number of insts issued each cycle (Count)
system.cpu.numIssuedDist::5                    252814      0.35%     99.46% # Number of insts issued each cycle (Count)
system.cpu.numIssuedDist::6                    196994      0.27%     99.73% # Number of insts issued each cycle (Count)
system.cpu.numIssuedDist::7                    145588      0.20%     99.93% # Number of insts issued each cycle (Count)
system.cpu.numIssuedDist::8                     54621      0.07%    100.00% # Number of insts issued each cycle (Count)
system.cpu.numIssuedDist::overflows                 0      0.00%    100.00% # Number of insts issued each cycle (Count)
system.cpu.numIssuedDist::min_value                 0                       # Number of insts issued each cycle (Count)
system.cpu.numIssuedDist::max_value                 8                       # Number of insts issued each cycle (Count)
system.cpu.numIssuedDist::total              73043506                       # Number of insts issued each cycle (Count)
system.cpu.statFuBusy::No_OpClass                   0      0.00%      0.00% # attempts to use FU when none available (Count)
system.cpu.statFuBusy::IntAlu                   17854      9.22%      9.22% # attempts to use FU when none available (Count)
system.cpu.statFuBusy::IntMult                      0      0.00%      9.22% # attempts to use FU when none available (Count)
system.cpu.statFuBusy::IntDiv                       0      0.00%      9.22% # attempts to use FU when none available (Count)
system.cpu.statFuBusy::FloatAdd                     0      0.00%      9.22% # attempts to use FU when none available (Count)
system.cpu.statFuBusy::FloatCmp                     0      0.00%      9.22% # attempts to use FU when none available (Count)
system.cpu.statFuBusy::FloatCvt                     0      0.00%      9.22% # attempts to use FU when none available (Count)
system.cpu.statFuBusy::FloatMult                    0      0.00%      9.22% # attempts to use FU when none available (Count)
system.cpu.statFuBusy::FloatMultAcc                 0      0.00%      9.22% # attempts to use FU when none available (Count)
system.cpu.statFuBusy::FloatDiv                     0      0.00%      9.22% # attempts to use FU when none available (Count)
system.cpu.statFuBusy::FloatMisc                    0      0.00%      9.22% # attempts to use FU when none available (Count)
system.cpu.statFuBusy::FloatSqrt                    0      0.00%      9.22% # attempts to use FU when none available (Count)
system.cpu.statFuBusy::SimdAdd                      0      0.00%      9.22% # attempts to use FU when none available (Count)
system.cpu.statFuBusy::SimdAddAcc                   0      0.00%      9.22% # attempts to use FU when none available (Count)
system.cpu.statFuBusy::SimdAlu                      0      0.00%      9.22% # attempts to use FU when none available (Count)
system.cpu.statFuBusy::SimdCmp                      0      0.00%      9.22% # attempts to use FU when none available (Count)
system.cpu.statFuBusy::SimdCvt                      0      0.00%      9.22% # attempts to use FU when none available (Count)
system.cpu.statFuBusy::SimdMisc                     0      0.00%      9.22% # attempts to use FU when none available (Count)
system.cpu.statFuBusy::SimdMult                     0      0.00%      9.22% # attempts to use FU when none available (Count)
system.cpu.statFuBusy::SimdMultAcc                  0      0.00%      9.22% # attempts to use FU when none available (Count)
system.cpu.statFuBusy::SimdShift                    0      0.00%      9.22% # attempts to use FU when none available (Count)
system.cpu.statFuBusy::SimdShiftAcc                 0      0.00%      9.22% # attempts to use FU when none available (Count)
system.cpu.statFuBusy::SimdDiv                      0      0.00%      9.22% # attempts to use FU when none available (Count)
system.cpu.statFuBusy::SimdSqrt                     0      0.00%      9.22% # attempts to use FU when none available (Count)
system.cpu.statFuBusy::SimdFloatAdd                 0      0.00%      9.22% # attempts to use FU when none available (Count)
system.cpu.statFuBusy::SimdFloatAlu                 0      0.00%      9.22% # attempts to use FU when none available (Count)
system.cpu.statFuBusy::SimdFloatCmp                 0      0.00%      9.22% # attempts to use FU when none available (Count)
system.cpu.statFuBusy::SimdFloatCvt                 0      0.00%      9.22% # attempts to use FU when none available (Count)
system.cpu.statFuBusy::SimdFloatDiv                 0      0.00%      9.22% # attempts to use FU when none available (Count)
system.cpu.statFuBusy::SimdFloatMisc                0      0.00%      9.22% # attempts to use FU when none available (Count)
system.cpu.statFuBusy::SimdFloatMult                0      0.00%      9.22% # attempts to use FU when none available (Count)
system.cpu.statFuBusy::SimdFloatMultAcc             0      0.00%      9.22% # attempts to use FU when none available (Count)
system.cpu.statFuBusy::SimdFloatSqrt                0      0.00%      9.22% # attempts to use FU when none available (Count)
system.cpu.statFuBusy::SimdReduceAdd                0      0.00%      9.22% # attempts to use FU when none available (Count)
system.cpu.statFuBusy::SimdReduceAlu                0      0.00%      9.22% # attempts to use FU when none available (Count)
system.cpu.statFuBusy::SimdReduceCmp                0      0.00%      9.22% # attempts to use FU when none available (Count)
system.cpu.statFuBusy::SimdFloatReduceAdd            0      0.00%      9.22% # attempts to use FU when none available (Count)
system.cpu.statFuBusy::SimdFloatReduceCmp            0      0.00%      9.22% # attempts to use FU when none available (Count)
system.cpu.statFuBusy::SimdAes                      0      0.00%      9.22% # attempts to use FU when none available (Count)
system.cpu.statFuBusy::SimdAesMix                   0      0.00%      9.22% # attempts to use FU when none available (Count)
system.cpu.statFuBusy::SimdSha1Hash                 0      0.00%      9.22% # attempts to use FU when none available (Count)
system.cpu.statFuBusy::SimdSha1Hash2                0      0.00%      9.22% # attempts to use FU when none available (Count)
system.cpu.statFuBusy::SimdSha256Hash               0      0.00%      9.22% # attempts to use FU when none available (Count)
system.cpu.statFuBusy::SimdSha256Hash2              0      0.00%      9.22% # attempts to use FU when none available (Count)
system.cpu.statFuBusy::SimdShaSigma2                0      0.00%      9.22% # attempts to use FU when none available (Count)
system.cpu.statFuBusy::SimdShaSigma3                0      0.00%      9.22% # attempts to use FU when none available (Count)
system.cpu.statFuBusy::SimdPredAlu                  0      0.00%      9.22% # attempts to use FU when none available (Count)
system.cpu.statFuBusy::MemRead                  70023     36.14%     45.36% # attempts to use FU when none available (Count)
system.cpu.statFuBusy::MemWrite                105851     54.64%    100.00% # attempts to use FU when none available (Count)
system.cpu.statFuBusy::FloatMemRead                 7      0.00%    100.00% # attempts to use FU when none available (Count)
system.cpu.statFuBusy::FloatMemWrite                0      0.00%    100.00% # attempts to use FU when none available (Count)
system.cpu.statFuBusy::IprAccess                    0      0.00%    100.00% # attempts to use FU when none available (Count)
system.cpu.statFuBusy::InstPrefetch                 0      0.00%    100.00% # attempts to use FU when none available (Count)
system.cpu.statIssuedInstType_0::No_OpClass           32      0.00%      0.00% # Number of instructions issued per FU type, per thread (Count)
system.cpu.statIssuedInstType_0::IntAlu       5581240     52.83%     52.83% # Number of instructions issued per FU type, per thread (Count)
system.cpu.statIssuedInstType_0::IntMult          814      0.01%     52.84% # Number of instructions issued per FU type, per thread (Count)
system.cpu.statIssuedInstType_0::IntDiv           154      0.00%     52.84% # Number of instructions issued per FU type, per thread (Count)
system.cpu.statIssuedInstType_0::FloatAdd            0      0.00%     52.84% # Number of instructions issued per FU type, per thread (Count)
system.cpu.statIssuedInstType_0::FloatCmp            0      0.00%     52.84% # Number of instructions issued per FU type, per thread (Count)
system.cpu.statIssuedInstType_0::FloatCvt            0      0.00%     52.84% # Number of instructions issued per FU type, per thread (Count)
system.cpu.statIssuedInstType_0::FloatMult            0      0.00%     52.84% # Number of instructions issued per FU type, per thread (Count)
system.cpu.statIssuedInstType_0::FloatMultAcc            0      0.00%     52.84% # Number of instructions issued per FU type, per thread (Count)
system.cpu.statIssuedInstType_0::FloatDiv            0      0.00%     52.84% # Number of instructions issued per FU type, per thread (Count)
system.cpu.statIssuedInstType_0::FloatMisc            0      0.00%     52.84% # Number of instructions issued per FU type, per thread (Count)
system.cpu.statIssuedInstType_0::FloatSqrt            0      0.00%     52.84% # Number of instructions issued per FU type, per thread (Count)
system.cpu.statIssuedInstType_0::SimdAdd            0      0.00%     52.84% # Number of instructions issued per FU type, per thread (Count)
system.cpu.statIssuedInstType_0::SimdAddAcc            0      0.00%     52.84% # Number of instructions issued per FU type, per thread (Count)
system.cpu.statIssuedInstType_0::SimdAlu            0      0.00%     52.84% # Number of instructions issued per FU type, per thread (Count)
system.cpu.statIssuedInstType_0::SimdCmp            0      0.00%     52.84% # Number of instructions issued per FU type, per thread (Count)
system.cpu.statIssuedInstType_0::SimdCvt            0      0.00%     52.84% # Number of instructions issued per FU type, per thread (Count)
system.cpu.statIssuedInstType_0::SimdMisc            0      0.00%     52.84% # Number of instructions issued per FU type, per thread (Count)
system.cpu.statIssuedInstType_0::SimdMult            0      0.00%     52.84% # Number of instructions issued per FU type, per thread (Count)
system.cpu.statIssuedInstType_0::SimdMultAcc            0      0.00%     52.84% # Number of instructions issued per FU type, per thread (Count)
system.cpu.statIssuedInstType_0::SimdShift            0      0.00%     52.84% # Number of instructions issued per FU type, per thread (Count)
system.cpu.statIssuedInstType_0::SimdShiftAcc            0      0.00%     52.84% # Number of instructions issued per FU type, per thread (Count)
system.cpu.statIssuedInstType_0::SimdDiv            0      0.00%     52.84% # Number of instructions issued per FU type, per thread (Count)
system.cpu.statIssuedInstType_0::SimdSqrt            0      0.00%     52.84% # Number of instructions issued per FU type, per thread (Count)
system.cpu.statIssuedInstType_0::SimdFloatAdd            0      0.00%     52.84% # Number of instructions issued per FU type, per thread (Count)
system.cpu.statIssuedInstType_0::SimdFloatAlu            0      0.00%     52.84% # Number of instructions issued per FU type, per thread (Count)
system.cpu.statIssuedInstType_0::SimdFloatCmp            0      0.00%     52.84% # Number of instructions issued per FU type, per thread (Count)
system.cpu.statIssuedInstType_0::SimdFloatCvt            0      0.00%     52.84% # Number of instructions issued per FU type, per thread (Count)
system.cpu.statIssuedInstType_0::SimdFloatDiv            0      0.00%     52.84% # Number of instructions issued per FU type, per thread (Count)
system.cpu.statIssuedInstType_0::SimdFloatMisc            0      0.00%     52.84% # Number of instructions issued per FU type, per thread (Count)
system.cpu.statIssuedInstType_0::SimdFloatMult            0      0.00%     52.84% # Number of instructions issued per FU type, per thread (Count)
system.cpu.statIssuedInstType_0::SimdFloatMultAcc            0      0.00%     52.84% # Number of instructions issued per FU type, per thread (Count)
system.cpu.statIssuedInstType_0::SimdFloatSqrt            0      0.00%     52.84% # Number of instructions issued per FU type, per thread (Count)
system.cpu.statIssuedInstType_0::SimdReduceAdd            0      0.00%     52.84% # Number of instructions issued per FU type, per thread (Count)
system.cpu.statIssuedInstType_0::SimdReduceAlu            0      0.00%     52.84% # Number of instructions issued per FU type, per thread (Count)
system.cpu.statIssuedInstType_0::SimdReduceCmp            0      0.00%     52.84% # Number of instructions issued per FU type, per thread (Count)
system.cpu.statIssuedInstType_0::SimdFloatReduceAdd            0      0.00%     52.84% # Number of instructions issued per FU type, per thread (Count)
system.cpu.statIssuedInstType_0::SimdFloatReduceCmp            0      0.00%     52.84% # Number of instructions issued per FU type, per thread (Count)
system.cpu.statIssuedInstType_0::SimdAes            0      0.00%     52.84% # Number of instructions issued per FU type, per thread (Count)
system.cpu.statIssuedInstType_0::SimdAesMix            0      0.00%     52.84% # Number of instructions issued per FU type, per thread (Count)
system.cpu.statIssuedInstType_0::SimdSha1Hash            0      0.00%     52.84% # Number of instructions issued per FU type, per thread (Count)
system.cpu.statIssuedInstType_0::SimdSha1Hash2            0      0.00%     52.84% # Number of instructions issued per FU type, per thread (Count)
system.cpu.statIssuedInstType_0::SimdSha256Hash            0      0.00%     52.84% # Number of instructions issued per FU type, per thread (Count)
system.cpu.statIssuedInstType_0::SimdSha256Hash2            0      0.00%     52.84% # Number of instructions issued per FU type, per thread (Count)
system.cpu.statIssuedInstType_0::SimdShaSigma2            0      0.00%     52.84% # Number of instructions issued per FU type, per thread (Count)
system.cpu.statIssuedInstType_0::SimdShaSigma3            0      0.00%     52.84% # Number of instructions issued per FU type, per thread (Count)
system.cpu.statIssuedInstType_0::SimdPredAlu            0      0.00%     52.84% # Number of instructions issued per FU type, per thread (Count)
system.cpu.statIssuedInstType_0::MemRead      4179235     39.56%     92.41% # Number of instructions issued per FU type, per thread (Count)
system.cpu.statIssuedInstType_0::MemWrite       802197      7.59%    100.00% # Number of instructions issued per FU type, per thread (Count)
system.cpu.statIssuedInstType_0::FloatMemRead           32      0.00%    100.00% # Number of instructions issued per FU type, per thread (Count)
system.cpu.statIssuedInstType_0::FloatMemWrite            0      0.00%    100.00% # Number of instructions issued per FU type, per thread (Count)
system.cpu.statIssuedInstType_0::IprAccess            0      0.00%    100.00% # Number of instructions issued per FU type, per thread (Count)
system.cpu.statIssuedInstType_0::InstPrefetch            0      0.00%    100.00% # Number of instructions issued per FU type, per thread (Count)
system.cpu.statIssuedInstType_0::total       10563704                       # Number of instructions issued per FU type, per thread (Count)
system.cpu.issueRate                         0.144596                       # Inst issue rate ((Count/Cycle))
system.cpu.fuBusy                              193735                       # FU busy when requested (Count)
system.cpu.fuBusyRate                        0.018340                       # FU busy rate (busy events/executed inst) ((Count/Count))
system.cpu.intInstQueueReads                 94374924                       # Number of integer instruction queue reads (Count)
system.cpu.intInstQueueWrites                11139409                       # Number of integer instruction queue writes (Count)
system.cpu.intInstQueueWakeupAccesses        10249329                       # Number of integer instruction queue wakeup accesses (Count)
system.cpu.fpInstQueueReads                        71                       # Number of floating instruction queue reads (Count)
system.cpu.fpInstQueueWrites                       32                       # Number of floating instruction queue writes (Count)
system.cpu.fpInstQueueWakeupAccesses               32                       # Number of floating instruction queue wakeup accesses (Count)
system.cpu.vecInstQueueReads                        0                       # Number of vector instruction queue reads (Count)
system.cpu.vecInstQueueWrites                       0                       # Number of vector instruction queue writes (Count)
system.cpu.vecInstQueueWakeupAccesses               0                       # Number of vector instruction queue wakeup accesses (Count)
system.cpu.intAluAccesses                    10757368                       # Number of integer alu accesses (Count)
system.cpu.fpAluAccesses                           39                       # Number of floating point alu accesses (Count)
system.cpu.vecAluAccesses                           0                       # Number of vector alu accesses (Count)
system.cpu.numInsts                          10270589                       # Number of executed instructions (Count)
system.cpu.numLoadInsts                       3894739                       # Number of load instructions executed (Count)
system.cpu.numSquashedInsts                     13949                       # Number of squashed instructions skipped in execute (Count)
system.cpu.numSwp                                   0                       # Number of swp insts executed (Count)
system.cpu.numNop                                   0                       # Number of nop insts executed (Count)
system.cpu.numRefs                            4694977                       # Number of memory reference insts executed (Count)
system.cpu.numBranches                        3048262                       # Number of branches executed (Count)
system.cpu.numStoreInsts                       800238                       # Number of stores executed (Count)
system.cpu.numRate                           0.140584                       # Inst execution rate ((Count/Cycle))
system.cpu.timesIdled                             161                       # Number of times that the entire CPU went into an idle state and unscheduled itself (Count)
system.cpu.idleCycles                           13347                       # Total number of cycles that the CPU has spent unscheduled due to idling (Cycle)
system.cpu.committedInsts                    10000000                       # Number of Instructions Simulated (Count)
system.cpu.committedOps                      10000000                       # Number of Ops (including micro ops) Simulated (Count)
system.cpu.cpi                               7.305685                       # CPI: Cycles Per Instruction ((Cycle/Count))
system.cpu.totalCpi                          7.305685                       # CPI: Total CPI of All Threads ((Cycle/Count))
system.cpu.ipc                               0.136880                       # IPC: Instructions Per Cycle ((Count/Cycle))
system.cpu.totalIpc                          0.136880                       # IPC: Total IPC of All Threads ((Count/Cycle))
system.cpu.intRegfileReads                   13007035                       # Number of integer regfile reads (Count)
system.cpu.intRegfileWrites                   6473336                       # Number of integer regfile writes (Count)
system.cpu.fpRegfileReads                          32                       # Number of floating regfile reads (Count)
system.cpu.fpRegfileWrites                         32                       # Number of floating regfile writes (Count)
system.cpu.miscRegfileReads                 496316613                       # number of misc regfile reads (Count)
system.cpu.miscRegfileWrites                       59                       # number of misc regfile writes (Count)
system.cpu.lastCommitTick                 36528426000                       # The last tick to commit an instruction (Count)
system.cpu.MemDepUnit__0.insertedLoads        4011035                       # Number of loads inserted to the mem dependence unit. (Count)
system.cpu.MemDepUnit__0.insertedStores        808021                       # Number of stores inserted to the mem dependence unit. (Count)
system.cpu.MemDepUnit__0.conflictingLoads        86548                       # Number of conflicting loads. (Count)
system.cpu.MemDepUnit__0.conflictingStores       127304                       # Number of conflicting stores. (Count)
system.cpu.MemDepUnit__1.insertedLoads              0                       # Number of loads inserted to the mem dependence unit. (Count)
system.cpu.MemDepUnit__1.insertedStores             0                       # Number of stores inserted to the mem dependence unit. (Count)
system.cpu.MemDepUnit__1.conflictingLoads            0                       # Number of conflicting loads. (Count)
system.cpu.MemDepUnit__1.conflictingStores            0                       # Number of conflicting stores. (Count)
system.cpu.MemDepUnit__2.insertedLoads              0                       # Number of loads inserted to the mem dependence unit. (Count)
system.cpu.MemDepUnit__2.insertedStores             0                       # Number of stores inserted to the mem dependence unit. (Count)
system.cpu.MemDepUnit__2.conflictingLoads            0                       # Number of conflicting loads. (Count)
system.cpu.MemDepUnit__2.conflictingStores            0                       # Number of conflicting stores. (Count)
system.cpu.MemDepUnit__3.insertedLoads              0                       # Number of loads inserted to the mem dependence unit. (Count)
system.cpu.MemDepUnit__3.insertedStores             0                       # Number of stores inserted to the mem dependence unit. (Count)
system.cpu.MemDepUnit__3.conflictingLoads            0                       # Number of conflicting loads. (Count)
system.cpu.MemDepUnit__3.conflictingStores            0                       # Number of conflicting stores. (Count)
system.cpu.branchPred.lookups                       0                       # Number of BP lookups (Count)
system.cpu.branchPred.condPredicted                 0                       # Number of conditional branches predicted (Count)
system.cpu.branchPred.condIncorrect             10481                       # Number of conditional branches incorrect (Count)
system.cpu.branchPred.BTBLookups                    0                       # Number of BTB lookups (Count)
system.cpu.branchPred.BTBHits                       0                       # Number of BTB hits (Count)
system.cpu.branchPred.BTBHitRatio                 nan                       # BTB Hit Ratio (Ratio)
system.cpu.branchPred.RASUsed                       0                       # Number of times the RAS was used to get a target. (Count)
system.cpu.branchPred.RASIncorrect                330                       # Number of incorrect RAS predictions. (Count)
system.cpu.branchPred.indirectLookups               0                       # Number of indirect predictor lookups. (Count)
system.cpu.branchPred.indirectHits                  0                       # Number of indirect target hits. (Count)
system.cpu.branchPred.indirectMisses                0                       # Number of indirect misses. (Count)
system.cpu.branchPred.indirectMispredicted          856                       # Number of mispredicted indirect branches. (Count)
system.cpu.branchPred.stream_tage.coldMisses            0                       # ittage the provider component lookup hit (Count)
system.cpu.branchPred.stream_tage.capacityMisses            0                       # ittage the alternate prediction lookup hit (Count)
system.cpu.branchPred.stream_tage.compulsoryMisses            0                       # ittage the provider component pred hit (Count)
system.cpu.branchPred.stream_tage.providerTableDist::samples      3429345                       # the distribution of provider component (Count)
system.cpu.branchPred.stream_tage.providerTableDist::mean     1.874439                       # the distribution of provider component (Count)
system.cpu.branchPred.stream_tage.providerTableDist::stdev     2.475050                       # the distribution of provider component (Count)
system.cpu.branchPred.stream_tage.providerTableDist::underflows            0      0.00%      0.00% # the distribution of provider component (Count)
system.cpu.branchPred.stream_tage.providerTableDist::0      1305397     38.07%     38.07% # the distribution of provider component (Count)
system.cpu.branchPred.stream_tage.providerTableDist::1       682169     19.89%     57.96% # the distribution of provider component (Count)
system.cpu.branchPred.stream_tage.providerTableDist::2       568315     16.57%     74.53% # the distribution of provider component (Count)
system.cpu.branchPred.stream_tage.providerTableDist::3       293377      8.55%     83.08% # the distribution of provider component (Count)
system.cpu.branchPred.stream_tage.providerTableDist::4       179968      5.25%     88.33% # the distribution of provider component (Count)
system.cpu.branchPred.stream_tage.providerTableDist::5        78498      2.29%     90.62% # the distribution of provider component (Count)
system.cpu.branchPred.stream_tage.providerTableDist::6        76669      2.24%     92.86% # the distribution of provider component (Count)
system.cpu.branchPred.stream_tage.providerTableDist::7        68335      1.99%     94.85% # the distribution of provider component (Count)
system.cpu.branchPred.stream_tage.providerTableDist::8        62024      1.81%     96.66% # the distribution of provider component (Count)
system.cpu.branchPred.stream_tage.providerTableDist::9        52217      1.52%     98.18% # the distribution of provider component (Count)
system.cpu.branchPred.stream_tage.providerTableDist::10        28293      0.83%     99.01% # the distribution of provider component (Count)
system.cpu.branchPred.stream_tage.providerTableDist::11        11580      0.34%     99.34% # the distribution of provider component (Count)
system.cpu.branchPred.stream_tage.providerTableDist::12         6371      0.19%     99.53% # the distribution of provider component (Count)
system.cpu.branchPred.stream_tage.providerTableDist::13         5290      0.15%     99.68% # the distribution of provider component (Count)
system.cpu.branchPred.stream_tage.providerTableDist::14         5860      0.17%     99.85% # the distribution of provider component (Count)
system.cpu.branchPred.stream_tage.providerTableDist::15         4982      0.15%    100.00% # the distribution of provider component (Count)
system.cpu.branchPred.stream_tage.providerTableDist::16            0      0.00%    100.00% # the distribution of provider component (Count)
system.cpu.branchPred.stream_tage.providerTableDist::17            0      0.00%    100.00% # the distribution of provider component (Count)
system.cpu.branchPred.stream_tage.providerTableDist::18            0      0.00%    100.00% # the distribution of provider component (Count)
system.cpu.branchPred.stream_tage.providerTableDist::19            0      0.00%    100.00% # the distribution of provider component (Count)
system.cpu.branchPred.stream_tage.providerTableDist::20            0      0.00%    100.00% # the distribution of provider component (Count)
system.cpu.branchPred.stream_tage.providerTableDist::21            0      0.00%    100.00% # the distribution of provider component (Count)
system.cpu.branchPred.stream_tage.providerTableDist::overflows            0      0.00%    100.00% # the distribution of provider component (Count)
system.cpu.branchPred.stream_tage.providerTableDist::min_value            0                       # the distribution of provider component (Count)
system.cpu.branchPred.stream_tage.providerTableDist::max_value           15                       # the distribution of provider component (Count)
system.cpu.branchPred.stream_tage.providerTableDist::total      3429345                       # the distribution of provider component (Count)
system.cpu.commit.commitSquashedInsts          585925                       # The number of squashed insts skipped by commit (Count)
system.cpu.commit.commitNonSpecStalls              33                       # The number of times commit has been forced to stall to communicate backwards (Count)
system.cpu.commit.branchMispredicts             11338                       # The number of times a branch was mispredicted (Count)
system.cpu.commit.numCommittedDist::samples     72958830                       # Number of insts commited each cycle (Count)
system.cpu.commit.numCommittedDist::mean     0.137064                       # Number of insts commited each cycle (Count)
system.cpu.commit.numCommittedDist::stdev     0.865341                       # Number of insts commited each cycle (Count)
system.cpu.commit.numCommittedDist::underflows            0      0.00%      0.00% # Number of insts commited each cycle (Count)
system.cpu.commit.numCommittedDist::0        69938086     95.86%     95.86% # Number of insts commited each cycle (Count)
system.cpu.commit.numCommittedDist::1         1340126      1.84%     97.70% # Number of insts commited each cycle (Count)
system.cpu.commit.numCommittedDist::2          262600      0.36%     98.06% # Number of insts commited each cycle (Count)
system.cpu.commit.numCommittedDist::3          341822      0.47%     98.52% # Number of insts commited each cycle (Count)
system.cpu.commit.numCommittedDist::4          313320      0.43%     98.95% # Number of insts commited each cycle (Count)
system.cpu.commit.numCommittedDist::5           60913      0.08%     99.04% # Number of insts commited each cycle (Count)
system.cpu.commit.numCommittedDist::6           19935      0.03%     99.07% # Number of insts commited each cycle (Count)
system.cpu.commit.numCommittedDist::7           24471      0.03%     99.10% # Number of insts commited each cycle (Count)
system.cpu.commit.numCommittedDist::8          657557      0.90%    100.00% # Number of insts commited each cycle (Count)
system.cpu.commit.numCommittedDist::overflows            0      0.00%    100.00% # Number of insts commited each cycle (Count)
system.cpu.commit.numCommittedDist::min_value            0                       # Number of insts commited each cycle (Count)
system.cpu.commit.numCommittedDist::max_value            8                       # Number of insts commited each cycle (Count)
system.cpu.commit.numCommittedDist::total     72958830                       # Number of insts commited each cycle (Count)
system.cpu.commit.instsCommitted             10000000                       # Number of instructions committed (Count)
system.cpu.commit.opsCommitted               10000000                       # Number of ops (including micro ops) committed (Count)
system.cpu.commit.memRefs                     4567525                       # Number of memory references committed (Count)
system.cpu.commit.loads                       3816542                       # Number of loads committed (Count)
system.cpu.commit.amos                              0                       # Number of atomic instructions committed (Count)
system.cpu.commit.membars                           0                       # Number of memory barriers committed (Count)
system.cpu.commit.branches                    2993480                       # Number of branches committed (Count)
system.cpu.commit.vectorInstructions                0                       # Number of committed Vector instructions. (Count)
system.cpu.commit.floating                         32                       # Number of committed floating point instructions. (Count)
system.cpu.commit.integer                     9833040                       # Number of committed integer instructions. (Count)
system.cpu.commit.functionCalls                 63549                       # Number of function calls committed. (Count)
system.cpu.commit.committedInstType_0::No_OpClass           32      0.00%      0.00% # Class of committed instruction (Count)
system.cpu.commit.committedInstType_0::IntAlu      5431487     54.31%     54.32% # Class of committed instruction (Count)
system.cpu.commit.committedInstType_0::IntMult          802      0.01%     54.32% # Class of committed instruction (Count)
system.cpu.commit.committedInstType_0::IntDiv          154      0.00%     54.32% # Class of committed instruction (Count)
system.cpu.commit.committedInstType_0::FloatAdd            0      0.00%     54.32% # Class of committed instruction (Count)
system.cpu.commit.committedInstType_0::FloatCmp            0      0.00%     54.32% # Class of committed instruction (Count)
system.cpu.commit.committedInstType_0::FloatCvt            0      0.00%     54.32% # Class of committed instruction (Count)
system.cpu.commit.committedInstType_0::FloatMult            0      0.00%     54.32% # Class of committed instruction (Count)
system.cpu.commit.committedInstType_0::FloatMultAcc            0      0.00%     54.32% # Class of committed instruction (Count)
system.cpu.commit.committedInstType_0::FloatDiv            0      0.00%     54.32% # Class of committed instruction (Count)
system.cpu.commit.committedInstType_0::FloatMisc            0      0.00%     54.32% # Class of committed instruction (Count)
system.cpu.commit.committedInstType_0::FloatSqrt            0      0.00%     54.32% # Class of committed instruction (Count)
system.cpu.commit.committedInstType_0::SimdAdd            0      0.00%     54.32% # Class of committed instruction (Count)
system.cpu.commit.committedInstType_0::SimdAddAcc            0      0.00%     54.32% # Class of committed instruction (Count)
system.cpu.commit.committedInstType_0::SimdAlu            0      0.00%     54.32% # Class of committed instruction (Count)
system.cpu.commit.committedInstType_0::SimdCmp            0      0.00%     54.32% # Class of committed instruction (Count)
system.cpu.commit.committedInstType_0::SimdCvt            0      0.00%     54.32% # Class of committed instruction (Count)
system.cpu.commit.committedInstType_0::SimdMisc            0      0.00%     54.32% # Class of committed instruction (Count)
system.cpu.commit.committedInstType_0::SimdMult            0      0.00%     54.32% # Class of committed instruction (Count)
system.cpu.commit.committedInstType_0::SimdMultAcc            0      0.00%     54.32% # Class of committed instruction (Count)
system.cpu.commit.committedInstType_0::SimdShift            0      0.00%     54.32% # Class of committed instruction (Count)
system.cpu.commit.committedInstType_0::SimdShiftAcc            0      0.00%     54.32% # Class of committed instruction (Count)
system.cpu.commit.committedInstType_0::SimdDiv            0      0.00%     54.32% # Class of committed instruction (Count)
system.cpu.commit.committedInstType_0::SimdSqrt            0      0.00%     54.32% # Class of committed instruction (Count)
system.cpu.commit.committedInstType_0::SimdFloatAdd            0      0.00%     54.32% # Class of committed instruction (Count)
system.cpu.commit.committedInstType_0::SimdFloatAlu            0      0.00%     54.32% # Class of committed instruction (Count)
system.cpu.commit.committedInstType_0::SimdFloatCmp            0      0.00%     54.32% # Class of committed instruction (Count)
system.cpu.commit.committedInstType_0::SimdFloatCvt            0      0.00%     54.32% # Class of committed instruction (Count)
system.cpu.commit.committedInstType_0::SimdFloatDiv            0      0.00%     54.32% # Class of committed instruction (Count)
system.cpu.commit.committedInstType_0::SimdFloatMisc            0      0.00%     54.32% # Class of committed instruction (Count)
system.cpu.commit.committedInstType_0::SimdFloatMult            0      0.00%     54.32% # Class of committed instruction (Count)
system.cpu.commit.committedInstType_0::SimdFloatMultAcc            0      0.00%     54.32% # Class of committed instruction (Count)
system.cpu.commit.committedInstType_0::SimdFloatSqrt            0      0.00%     54.32% # Class of committed instruction (Count)
system.cpu.commit.committedInstType_0::SimdReduceAdd            0      0.00%     54.32% # Class of committed instruction (Count)
system.cpu.commit.committedInstType_0::SimdReduceAlu            0      0.00%     54.32% # Class of committed instruction (Count)
system.cpu.commit.committedInstType_0::SimdReduceCmp            0      0.00%     54.32% # Class of committed instruction (Count)
system.cpu.commit.committedInstType_0::SimdFloatReduceAdd            0      0.00%     54.32% # Class of committed instruction (Count)
system.cpu.commit.committedInstType_0::SimdFloatReduceCmp            0      0.00%     54.32% # Class of committed instruction (Count)
system.cpu.commit.committedInstType_0::SimdAes            0      0.00%     54.32% # Class of committed instruction (Count)
system.cpu.commit.committedInstType_0::SimdAesMix            0      0.00%     54.32% # Class of committed instruction (Count)
system.cpu.commit.committedInstType_0::SimdSha1Hash            0      0.00%     54.32% # Class of committed instruction (Count)
system.cpu.commit.committedInstType_0::SimdSha1Hash2            0      0.00%     54.32% # Class of committed instruction (Count)
system.cpu.commit.committedInstType_0::SimdSha256Hash            0      0.00%     54.32% # Class of committed instruction (Count)
system.cpu.commit.committedInstType_0::SimdSha256Hash2            0      0.00%     54.32% # Class of committed instruction (Count)
system.cpu.commit.committedInstType_0::SimdShaSigma2            0      0.00%     54.32% # Class of committed instruction (Count)
system.cpu.commit.committedInstType_0::SimdShaSigma3            0      0.00%     54.32% # Class of committed instruction (Count)
system.cpu.commit.committedInstType_0::SimdPredAlu            0      0.00%     54.32% # Class of committed instruction (Count)
system.cpu.commit.committedInstType_0::MemRead      3816510     38.17%     92.49% # Class of committed instruction (Count)
system.cpu.commit.committedInstType_0::MemWrite       750983      7.51%    100.00% # Class of committed instruction (Count)
system.cpu.commit.committedInstType_0::FloatMemRead           32      0.00%    100.00% # Class of committed instruction (Count)
system.cpu.commit.committedInstType_0::FloatMemWrite            0      0.00%    100.00% # Class of committed instruction (Count)
system.cpu.commit.committedInstType_0::IprAccess            0      0.00%    100.00% # Class of committed instruction (Count)
system.cpu.commit.committedInstType_0::InstPrefetch            0      0.00%    100.00% # Class of committed instruction (Count)
system.cpu.commit.committedInstType_0::total     10000000                       # Class of committed instruction (Count)
system.cpu.commit.commitEligibleSamples        657557                       # number cycles where commit BW limit reached (Cycle)
system.cpu.dcache.demandHits::cpu.data        1907466                       # number of demand (read+write) hits (Count)
system.cpu.dcache.demandHits::total           1907466                       # number of demand (read+write) hits (Count)
system.cpu.dcache.overallHits::cpu.data       1907466                       # number of overall hits (Count)
system.cpu.dcache.overallHits::total          1907466                       # number of overall hits (Count)
system.cpu.dcache.demandMisses::cpu.data      2100548                       # number of demand (read+write) misses (Count)
system.cpu.dcache.demandMisses::total         2100548                       # number of demand (read+write) misses (Count)
system.cpu.dcache.overallMisses::cpu.data      2100548                       # number of overall misses (Count)
system.cpu.dcache.overallMisses::total        2100548                       # number of overall misses (Count)
system.cpu.dcache.demandMissLatency::cpu.data 129211317000                       # number of demand (read+write) miss ticks (Tick)
system.cpu.dcache.demandMissLatency::total 129211317000                       # number of demand (read+write) miss ticks (Tick)
system.cpu.dcache.overallMissLatency::cpu.data 129211317000                       # number of overall miss ticks (Tick)
system.cpu.dcache.overallMissLatency::total 129211317000                       # number of overall miss ticks (Tick)
system.cpu.dcache.demandAccesses::cpu.data      4008014                       # number of demand (read+write) accesses (Count)
system.cpu.dcache.demandAccesses::total       4008014                       # number of demand (read+write) accesses (Count)
system.cpu.dcache.overallAccesses::cpu.data      4008014                       # number of overall (read+write) accesses (Count)
system.cpu.dcache.overallAccesses::total      4008014                       # number of overall (read+write) accesses (Count)
system.cpu.dcache.demandMissRate::cpu.data     0.524087                       # miss rate for demand accesses (Ratio)
system.cpu.dcache.demandMissRate::total      0.524087                       # miss rate for demand accesses (Ratio)
system.cpu.dcache.overallMissRate::cpu.data     0.524087                       # miss rate for overall accesses (Ratio)
system.cpu.dcache.overallMissRate::total     0.524087                       # miss rate for overall accesses (Ratio)
system.cpu.dcache.demandAvgMissLatency::cpu.data 61513.146569                       # average overall miss latency in ticks ((Tick/Count))
system.cpu.dcache.demandAvgMissLatency::total 61513.146569                       # average overall miss latency in ticks ((Tick/Count))
system.cpu.dcache.overallAvgMissLatency::cpu.data 61513.146569                       # average overall miss latency ((Tick/Count))
system.cpu.dcache.overallAvgMissLatency::total 61513.146569                       # average overall miss latency ((Tick/Count))
system.cpu.dcache.blockedCycles::no_mshrs            0                       # number of cycles access was blocked (Cycle)
system.cpu.dcache.blockedCycles::no_targets           78                       # number of cycles access was blocked (Cycle)
system.cpu.dcache.blockedCauses::no_mshrs            0                       # number of times access was blocked (Count)
system.cpu.dcache.blockedCauses::no_targets            1                       # number of times access was blocked (Count)
system.cpu.dcache.avgBlocked::no_mshrs            nan                       # average number of cycles each access was blocked ((Cycle/Count))
system.cpu.dcache.avgBlocked::no_targets           78                       # average number of cycles each access was blocked ((Cycle/Count))
system.cpu.dcache.writebacks::writebacks          377                       # number of writebacks (Count)
system.cpu.dcache.writebacks::total               377                       # number of writebacks (Count)
system.cpu.dcache.demandMshrHits::cpu.data      1199572                       # number of demand (read+write) MSHR hits (Count)
system.cpu.dcache.demandMshrHits::total       1199572                       # number of demand (read+write) MSHR hits (Count)
system.cpu.dcache.overallMshrHits::cpu.data      1199572                       # number of overall MSHR hits (Count)
system.cpu.dcache.overallMshrHits::total      1199572                       # number of overall MSHR hits (Count)
system.cpu.dcache.demandMshrMisses::cpu.data       900976                       # number of demand (read+write) MSHR misses (Count)
system.cpu.dcache.demandMshrMisses::total       900976                       # number of demand (read+write) MSHR misses (Count)
system.cpu.dcache.overallMshrMisses::cpu.data       900976                       # number of overall MSHR misses (Count)
system.cpu.dcache.overallMshrMisses::total       900976                       # number of overall MSHR misses (Count)
system.cpu.dcache.overallMshrUncacheable::cpu.data            2                       # number of overall MSHR uncacheable misses (Count)
system.cpu.dcache.overallMshrUncacheable::total            2                       # number of overall MSHR uncacheable misses (Count)
system.cpu.dcache.demandMshrMissLatency::cpu.data  55667810500                       # number of demand (read+write) MSHR miss ticks (Tick)
system.cpu.dcache.demandMshrMissLatency::total  55667810500                       # number of demand (read+write) MSHR miss ticks (Tick)
system.cpu.dcache.overallMshrMissLatency::cpu.data  55667810500                       # number of overall MSHR miss ticks (Tick)
system.cpu.dcache.overallMshrMissLatency::total  55667810500                       # number of overall MSHR miss ticks (Tick)
system.cpu.dcache.demandMshrMissRate::cpu.data     0.224794                       # mshr miss ratio for demand accesses (Ratio)
system.cpu.dcache.demandMshrMissRate::total     0.224794                       # mshr miss ratio for demand accesses (Ratio)
system.cpu.dcache.overallMshrMissRate::cpu.data     0.224794                       # mshr miss ratio for overall accesses (Ratio)
system.cpu.dcache.overallMshrMissRate::total     0.224794                       # mshr miss ratio for overall accesses (Ratio)
system.cpu.dcache.demandAvgMshrMissLatency::cpu.data 61786.119164                       # average overall mshr miss latency ((Tick/Count))
system.cpu.dcache.demandAvgMshrMissLatency::total 61786.119164                       # average overall mshr miss latency ((Tick/Count))
system.cpu.dcache.overallAvgMshrMissLatency::cpu.data 61786.119164                       # average overall mshr miss latency ((Tick/Count))
system.cpu.dcache.overallAvgMshrMissLatency::total 61786.119164                       # average overall mshr miss latency ((Tick/Count))
system.cpu.dcache.replacements                 898928                       # number of replacements (Count)
system.cpu.dcache.ReadReq.hits::cpu.data      1158075                       # number of ReadReq hits (Count)
system.cpu.dcache.ReadReq.hits::total         1158075                       # number of ReadReq hits (Count)
system.cpu.dcache.ReadReq.misses::cpu.data      2098958                       # number of ReadReq misses (Count)
system.cpu.dcache.ReadReq.misses::total       2098958                       # number of ReadReq misses (Count)
system.cpu.dcache.ReadReq.missLatency::cpu.data 129195151500                       # number of ReadReq miss ticks (Tick)
system.cpu.dcache.ReadReq.missLatency::total 129195151500                       # number of ReadReq miss ticks (Tick)
system.cpu.dcache.ReadReq.accesses::cpu.data      3257033                       # number of ReadReq accesses(hits+misses) (Count)
system.cpu.dcache.ReadReq.accesses::total      3257033                       # number of ReadReq accesses(hits+misses) (Count)
system.cpu.dcache.ReadReq.missRate::cpu.data     0.644439                       # miss rate for ReadReq accesses (Ratio)
system.cpu.dcache.ReadReq.missRate::total     0.644439                       # miss rate for ReadReq accesses (Ratio)
system.cpu.dcache.ReadReq.avgMissLatency::cpu.data 61552.042251                       # average ReadReq miss latency ((Tick/Count))
system.cpu.dcache.ReadReq.avgMissLatency::total 61552.042251                       # average ReadReq miss latency ((Tick/Count))
system.cpu.dcache.ReadReq.mshrHits::cpu.data      1198327                       # number of ReadReq MSHR hits (Count)
system.cpu.dcache.ReadReq.mshrHits::total      1198327                       # number of ReadReq MSHR hits (Count)
system.cpu.dcache.ReadReq.mshrMisses::cpu.data       900631                       # number of ReadReq MSHR misses (Count)
system.cpu.dcache.ReadReq.mshrMisses::total       900631                       # number of ReadReq MSHR misses (Count)
system.cpu.dcache.ReadReq.mshrMissLatency::cpu.data  55664226500                       # number of ReadReq MSHR miss ticks (Tick)
system.cpu.dcache.ReadReq.mshrMissLatency::total  55664226500                       # number of ReadReq MSHR miss ticks (Tick)
system.cpu.dcache.ReadReq.mshrMissRate::cpu.data     0.276519                       # mshr miss rate for ReadReq accesses (Ratio)
system.cpu.dcache.ReadReq.mshrMissRate::total     0.276519                       # mshr miss rate for ReadReq accesses (Ratio)
system.cpu.dcache.ReadReq.avgMshrMissLatency::cpu.data 61805.807817                       # average ReadReq mshr miss latency ((Tick/Count))
system.cpu.dcache.ReadReq.avgMshrMissLatency::total 61805.807817                       # average ReadReq mshr miss latency ((Tick/Count))
system.cpu.dcache.WriteReq.hits::cpu.data       749391                       # number of WriteReq hits (Count)
system.cpu.dcache.WriteReq.hits::total         749391                       # number of WriteReq hits (Count)
system.cpu.dcache.WriteReq.misses::cpu.data         1590                       # number of WriteReq misses (Count)
system.cpu.dcache.WriteReq.misses::total         1590                       # number of WriteReq misses (Count)
system.cpu.dcache.WriteReq.missLatency::cpu.data     16165500                       # number of WriteReq miss ticks (Tick)
system.cpu.dcache.WriteReq.missLatency::total     16165500                       # number of WriteReq miss ticks (Tick)
system.cpu.dcache.WriteReq.accesses::cpu.data       750981                       # number of WriteReq accesses(hits+misses) (Count)
system.cpu.dcache.WriteReq.accesses::total       750981                       # number of WriteReq accesses(hits+misses) (Count)
system.cpu.dcache.WriteReq.missRate::cpu.data     0.002117                       # miss rate for WriteReq accesses (Ratio)
system.cpu.dcache.WriteReq.missRate::total     0.002117                       # miss rate for WriteReq accesses (Ratio)
system.cpu.dcache.WriteReq.avgMissLatency::cpu.data 10166.981132                       # average WriteReq miss latency ((Tick/Count))
system.cpu.dcache.WriteReq.avgMissLatency::total 10166.981132                       # average WriteReq miss latency ((Tick/Count))
system.cpu.dcache.WriteReq.mshrHits::cpu.data         1245                       # number of WriteReq MSHR hits (Count)
system.cpu.dcache.WriteReq.mshrHits::total         1245                       # number of WriteReq MSHR hits (Count)
system.cpu.dcache.WriteReq.mshrMisses::cpu.data          345                       # number of WriteReq MSHR misses (Count)
system.cpu.dcache.WriteReq.mshrMisses::total          345                       # number of WriteReq MSHR misses (Count)
system.cpu.dcache.WriteReq.mshrUncacheable::cpu.data            2                       # number of WriteReq MSHR uncacheable (Count)
system.cpu.dcache.WriteReq.mshrUncacheable::total            2                       # number of WriteReq MSHR uncacheable (Count)
system.cpu.dcache.WriteReq.mshrMissLatency::cpu.data      3584000                       # number of WriteReq MSHR miss ticks (Tick)
system.cpu.dcache.WriteReq.mshrMissLatency::total      3584000                       # number of WriteReq MSHR miss ticks (Tick)
system.cpu.dcache.WriteReq.mshrMissRate::cpu.data     0.000459                       # mshr miss rate for WriteReq accesses (Ratio)
system.cpu.dcache.WriteReq.mshrMissRate::total     0.000459                       # mshr miss rate for WriteReq accesses (Ratio)
system.cpu.dcache.WriteReq.avgMshrMissLatency::cpu.data 10388.405797                       # average WriteReq mshr miss latency ((Tick/Count))
system.cpu.dcache.WriteReq.avgMshrMissLatency::total 10388.405797                       # average WriteReq mshr miss latency ((Tick/Count))
system.cpu.dcache.power_state.pwrStateResidencyTicks::UNDEFINED  36528426000                       # Cumulative time (in ticks) in various power states (Tick)
system.cpu.dcache.tags.tagsInUse          2044.543338                       # Average ticks per tags in use ((Tick/Count))
system.cpu.dcache.tags.totalRefs              1608243                       # Total number of references to valid blocks. (Count)
system.cpu.dcache.tags.sampledRefs             898928                       # Sample count of references to valid blocks. (Count)
system.cpu.dcache.tags.avgRefs               1.789068                       # Average number of references to valid blocks. ((Count/Count))
system.cpu.dcache.tags.warmupTick              153500                       # The tick when the warmup percentage was hit. (Tick)
system.cpu.dcache.tags.occupancies::cpu.data  2044.543338                       # Average occupied blocks per tick, per requestor ((Count/Tick))
system.cpu.dcache.tags.avgOccs::cpu.data     0.998312                       # Average percentage of cache occupancy ((Ratio/Tick))
system.cpu.dcache.tags.avgOccs::total        0.998312                       # Average percentage of cache occupancy ((Ratio/Tick))
system.cpu.dcache.tags.occupanciesTaskId::1024         2048                       # Occupied blocks per task id (Count)
system.cpu.dcache.tags.ageTaskId_1024::0          109                       # Occupied blocks per task id, per block age (Count)
system.cpu.dcache.tags.ageTaskId_1024::1         1787                       # Occupied blocks per task id, per block age (Count)
system.cpu.dcache.tags.ageTaskId_1024::2          146                       # Occupied blocks per task id, per block age (Count)
system.cpu.dcache.tags.ageTaskId_1024::3            1                       # Occupied blocks per task id, per block age (Count)
system.cpu.dcache.tags.ageTaskId_1024::4            5                       # Occupied blocks per task id, per block age (Count)
system.cpu.dcache.tags.ratioOccsTaskId::1024            1                       # Ratio of occupied blocks and all blocks, per task id (Ratio)
system.cpu.dcache.tags.tagAccesses           32965088                       # Number of tag accesses (Count)
system.cpu.dcache.tags.dataAccesses          32965088                       # Number of data accesses (Count)
system.cpu.dcache.tags.power_state.pwrStateResidencyTicks::UNDEFINED  36528426000                       # Cumulative time (in ticks) in various power states (Tick)
system.cpu.decode.idleCycles                   322711                       # Number of cycles decode is idle (Cycle)
system.cpu.decode.blockedCycles              71210819                       # Number of cycles decode is blocked (Cycle)
system.cpu.decode.runCycles                    763750                       # Number of cycles decode is running (Cycle)
system.cpu.decode.unblockCycles                734759                       # Number of cycles decode is unblocking (Cycle)
system.cpu.decode.squashCycles                  11467                       # Number of cycles decode is squashing (Cycle)
system.cpu.decode.branchResolved              1020089                       # Number of times decode resolved a branch (Count)
system.cpu.decode.branchMispred                   600                       # Number of times decode detected a branch misprediction (Count)
system.cpu.decode.decodedInsts               10692497                       # Number of instructions handled by decode (Count)
system.cpu.decode.squashedInsts                  3021                       # Number of squashed instructions handled by decode (Count)
system.cpu.dtb_walker_cache.demandHits::cpu.mmu.dtb.walker       740977                       # number of demand (read+write) hits (Count)
system.cpu.dtb_walker_cache.demandHits::total       740977                       # number of demand (read+write) hits (Count)
system.cpu.dtb_walker_cache.overallHits::cpu.mmu.dtb.walker       740977                       # number of overall hits (Count)
system.cpu.dtb_walker_cache.overallHits::total       740977                       # number of overall hits (Count)
system.cpu.dtb_walker_cache.demandMisses::cpu.mmu.dtb.walker        82470                       # number of demand (read+write) misses (Count)
system.cpu.dtb_walker_cache.demandMisses::total        82470                       # number of demand (read+write) misses (Count)
system.cpu.dtb_walker_cache.overallMisses::cpu.mmu.dtb.walker        82470                       # number of overall misses (Count)
system.cpu.dtb_walker_cache.overallMisses::total        82470                       # number of overall misses (Count)
system.cpu.dtb_walker_cache.demandMissLatency::cpu.mmu.dtb.walker   5793259000                       # number of demand (read+write) miss ticks (Tick)
system.cpu.dtb_walker_cache.demandMissLatency::total   5793259000                       # number of demand (read+write) miss ticks (Tick)
system.cpu.dtb_walker_cache.overallMissLatency::cpu.mmu.dtb.walker   5793259000                       # number of overall miss ticks (Tick)
system.cpu.dtb_walker_cache.overallMissLatency::total   5793259000                       # number of overall miss ticks (Tick)
system.cpu.dtb_walker_cache.demandAccesses::cpu.mmu.dtb.walker       823447                       # number of demand (read+write) accesses (Count)
system.cpu.dtb_walker_cache.demandAccesses::total       823447                       # number of demand (read+write) accesses (Count)
system.cpu.dtb_walker_cache.overallAccesses::cpu.mmu.dtb.walker       823447                       # number of overall (read+write) accesses (Count)
system.cpu.dtb_walker_cache.overallAccesses::total       823447                       # number of overall (read+write) accesses (Count)
system.cpu.dtb_walker_cache.demandMissRate::cpu.mmu.dtb.walker     0.100152                       # miss rate for demand accesses (Ratio)
system.cpu.dtb_walker_cache.demandMissRate::total     0.100152                       # miss rate for demand accesses (Ratio)
system.cpu.dtb_walker_cache.overallMissRate::cpu.mmu.dtb.walker     0.100152                       # miss rate for overall accesses (Ratio)
system.cpu.dtb_walker_cache.overallMissRate::total     0.100152                       # miss rate for overall accesses (Ratio)
system.cpu.dtb_walker_cache.demandAvgMissLatency::cpu.mmu.dtb.walker 70246.865527                       # average overall miss latency in ticks ((Tick/Count))
system.cpu.dtb_walker_cache.demandAvgMissLatency::total 70246.865527                       # average overall miss latency in ticks ((Tick/Count))
system.cpu.dtb_walker_cache.overallAvgMissLatency::cpu.mmu.dtb.walker 70246.865527                       # average overall miss latency ((Tick/Count))
system.cpu.dtb_walker_cache.overallAvgMissLatency::total 70246.865527                       # average overall miss latency ((Tick/Count))
system.cpu.dtb_walker_cache.blockedCycles::no_mshrs            0                       # number of cycles access was blocked (Cycle)
system.cpu.dtb_walker_cache.blockedCycles::no_targets            0                       # number of cycles access was blocked (Cycle)
system.cpu.dtb_walker_cache.blockedCauses::no_mshrs            0                       # number of times access was blocked (Count)
system.cpu.dtb_walker_cache.blockedCauses::no_targets            0                       # number of times access was blocked (Count)
system.cpu.dtb_walker_cache.avgBlocked::no_mshrs          nan                       # average number of cycles each access was blocked ((Cycle/Count))
system.cpu.dtb_walker_cache.avgBlocked::no_targets          nan                       # average number of cycles each access was blocked ((Cycle/Count))
system.cpu.dtb_walker_cache.demandMshrMisses::cpu.mmu.dtb.walker        82470                       # number of demand (read+write) MSHR misses (Count)
system.cpu.dtb_walker_cache.demandMshrMisses::total        82470                       # number of demand (read+write) MSHR misses (Count)
system.cpu.dtb_walker_cache.overallMshrMisses::cpu.mmu.dtb.walker        82470                       # number of overall MSHR misses (Count)
system.cpu.dtb_walker_cache.overallMshrMisses::total        82470                       # number of overall MSHR misses (Count)
system.cpu.dtb_walker_cache.demandMshrMissLatency::cpu.mmu.dtb.walker   5710789000                       # number of demand (read+write) MSHR miss ticks (Tick)
system.cpu.dtb_walker_cache.demandMshrMissLatency::total   5710789000                       # number of demand (read+write) MSHR miss ticks (Tick)
system.cpu.dtb_walker_cache.overallMshrMissLatency::cpu.mmu.dtb.walker   5710789000                       # number of overall MSHR miss ticks (Tick)
system.cpu.dtb_walker_cache.overallMshrMissLatency::total   5710789000                       # number of overall MSHR miss ticks (Tick)
system.cpu.dtb_walker_cache.demandMshrMissRate::cpu.mmu.dtb.walker     0.100152                       # mshr miss ratio for demand accesses (Ratio)
system.cpu.dtb_walker_cache.demandMshrMissRate::total     0.100152                       # mshr miss ratio for demand accesses (Ratio)
system.cpu.dtb_walker_cache.overallMshrMissRate::cpu.mmu.dtb.walker     0.100152                       # mshr miss ratio for overall accesses (Ratio)
system.cpu.dtb_walker_cache.overallMshrMissRate::total     0.100152                       # mshr miss ratio for overall accesses (Ratio)
system.cpu.dtb_walker_cache.demandAvgMshrMissLatency::cpu.mmu.dtb.walker 69246.865527                       # average overall mshr miss latency ((Tick/Count))
system.cpu.dtb_walker_cache.demandAvgMshrMissLatency::total 69246.865527                       # average overall mshr miss latency ((Tick/Count))
system.cpu.dtb_walker_cache.overallAvgMshrMissLatency::cpu.mmu.dtb.walker 69246.865527                       # average overall mshr miss latency ((Tick/Count))
system.cpu.dtb_walker_cache.overallAvgMshrMissLatency::total 69246.865527                       # average overall mshr miss latency ((Tick/Count))
system.cpu.dtb_walker_cache.replacements        82454                       # number of replacements (Count)
system.cpu.dtb_walker_cache.ReadReq.hits::cpu.mmu.dtb.walker       740977                       # number of ReadReq hits (Count)
system.cpu.dtb_walker_cache.ReadReq.hits::total       740977                       # number of ReadReq hits (Count)
system.cpu.dtb_walker_cache.ReadReq.misses::cpu.mmu.dtb.walker        82470                       # number of ReadReq misses (Count)
system.cpu.dtb_walker_cache.ReadReq.misses::total        82470                       # number of ReadReq misses (Count)
system.cpu.dtb_walker_cache.ReadReq.missLatency::cpu.mmu.dtb.walker   5793259000                       # number of ReadReq miss ticks (Tick)
system.cpu.dtb_walker_cache.ReadReq.missLatency::total   5793259000                       # number of ReadReq miss ticks (Tick)
system.cpu.dtb_walker_cache.ReadReq.accesses::cpu.mmu.dtb.walker       823447                       # number of ReadReq accesses(hits+misses) (Count)
system.cpu.dtb_walker_cache.ReadReq.accesses::total       823447                       # number of ReadReq accesses(hits+misses) (Count)
system.cpu.dtb_walker_cache.ReadReq.missRate::cpu.mmu.dtb.walker     0.100152                       # miss rate for ReadReq accesses (Ratio)
system.cpu.dtb_walker_cache.ReadReq.missRate::total     0.100152                       # miss rate for ReadReq accesses (Ratio)
system.cpu.dtb_walker_cache.ReadReq.avgMissLatency::cpu.mmu.dtb.walker 70246.865527                       # average ReadReq miss latency ((Tick/Count))
system.cpu.dtb_walker_cache.ReadReq.avgMissLatency::total 70246.865527                       # average ReadReq miss latency ((Tick/Count))
system.cpu.dtb_walker_cache.ReadReq.mshrMisses::cpu.mmu.dtb.walker        82470                       # number of ReadReq MSHR misses (Count)
system.cpu.dtb_walker_cache.ReadReq.mshrMisses::total        82470                       # number of ReadReq MSHR misses (Count)
system.cpu.dtb_walker_cache.ReadReq.mshrMissLatency::cpu.mmu.dtb.walker   5710789000                       # number of ReadReq MSHR miss ticks (Tick)
system.cpu.dtb_walker_cache.ReadReq.mshrMissLatency::total   5710789000                       # number of ReadReq MSHR miss ticks (Tick)
system.cpu.dtb_walker_cache.ReadReq.mshrMissRate::cpu.mmu.dtb.walker     0.100152                       # mshr miss rate for ReadReq accesses (Ratio)
system.cpu.dtb_walker_cache.ReadReq.mshrMissRate::total     0.100152                       # mshr miss rate for ReadReq accesses (Ratio)
system.cpu.dtb_walker_cache.ReadReq.avgMshrMissLatency::cpu.mmu.dtb.walker 69246.865527                       # average ReadReq mshr miss latency ((Tick/Count))
system.cpu.dtb_walker_cache.ReadReq.avgMshrMissLatency::total 69246.865527                       # average ReadReq mshr miss latency ((Tick/Count))
system.cpu.dtb_walker_cache.power_state.pwrStateResidencyTicks::UNDEFINED  36528426000                       # Cumulative time (in ticks) in various power states (Tick)
system.cpu.dtb_walker_cache.tags.tagsInUse    15.998636                       # Average ticks per tags in use ((Tick/Count))
system.cpu.dtb_walker_cache.tags.totalRefs       823386                       # Total number of references to valid blocks. (Count)
system.cpu.dtb_walker_cache.tags.sampledRefs        82454                       # Sample count of references to valid blocks. (Count)
system.cpu.dtb_walker_cache.tags.avgRefs     9.986004                       # Average number of references to valid blocks. ((Count/Count))
system.cpu.dtb_walker_cache.tags.warmupTick      1430500                       # The tick when the warmup percentage was hit. (Tick)
system.cpu.dtb_walker_cache.tags.occupancies::cpu.mmu.dtb.walker    15.998636                       # Average occupied blocks per tick, per requestor ((Count/Tick))
system.cpu.dtb_walker_cache.tags.avgOccs::cpu.mmu.dtb.walker     0.999915                       # Average percentage of cache occupancy ((Ratio/Tick))
system.cpu.dtb_walker_cache.tags.avgOccs::total     0.999915                       # Average percentage of cache occupancy ((Ratio/Tick))
system.cpu.dtb_walker_cache.tags.occupanciesTaskId::1024           16                       # Occupied blocks per task id (Count)
system.cpu.dtb_walker_cache.tags.ageTaskId_1024::0           15                       # Occupied blocks per task id, per block age (Count)
system.cpu.dtb_walker_cache.tags.ageTaskId_1024::1            1                       # Occupied blocks per task id, per block age (Count)
system.cpu.dtb_walker_cache.tags.ratioOccsTaskId::1024            1                       # Ratio of occupied blocks and all blocks, per task id (Ratio)
system.cpu.dtb_walker_cache.tags.tagAccesses      1729364                       # Number of tag accesses (Count)
system.cpu.dtb_walker_cache.tags.dataAccesses      1729364                       # Number of data accesses (Count)
system.cpu.dtb_walker_cache.tags.power_state.pwrStateResidencyTicks::UNDEFINED  36528426000                       # Cumulative time (in ticks) in various power states (Tick)
system.cpu.fetch.icacheStallCycles               8251                       # Number of cycles fetch is stalled on an Icache miss (Cycle)
system.cpu.fetch.insts                       11004103                       # Number of instructions fetch has processed (Count)
system.cpu.fetch.branches                     1131313                       # Number of branches that fetch encountered (Count)
system.cpu.fetch.predictedBranches            1131313                       # Number of branches that fetch has predicted taken (Count)
system.cpu.fetch.cycles                      73019305                       # Number of cycles fetch has run and was not squashing or blocked (Cycle)
system.cpu.fetch.squashCycles                   24118                       # Number of cycles fetch has spent squashing (Cycle)
system.cpu.fetch.tlbCycles                       3054                       # Number of cycles fetch has spent waiting for tlb (Cycle)
system.cpu.fetch.miscStallCycles                  311                       # Number of cycles fetch has spent waiting on interrupts, or bad addresses, or out of MSHRs (Cycle)
system.cpu.fetch.icacheWaitRetryStallCycles          526                       # Number of stall cycles due to full MSHR (Cycle)
system.cpu.fetch.cacheLines                   1746164                       # Number of cache lines fetched (Count)
system.cpu.fetch.icacheSquashes                   216                       # Number of outstanding Icache misses that were squashed (Count)
system.cpu.fetch.tlbSquashes                       23                       # Number of outstanding ITLB misses that were squashed (Count)
system.cpu.fetch.nisnDist::samples           73043506                       # Number of instructions fetched each cycle (Total) (Count)
system.cpu.fetch.nisnDist::mean              0.150651                       # Number of instructions fetched each cycle (Total) (Count)
system.cpu.fetch.nisnDist::stdev             0.900004                       # Number of instructions fetched each cycle (Total) (Count)
system.cpu.fetch.nisnDist::underflows               0      0.00%      0.00% # Number of instructions fetched each cycle (Total) (Count)
system.cpu.fetch.nisnDist::0                 70136066     96.02%     96.02% # Number of instructions fetched each cycle (Total) (Count)
system.cpu.fetch.nisnDist::1                   851407      1.17%     97.19% # Number of instructions fetched each cycle (Total) (Count)
system.cpu.fetch.nisnDist::2                   476587      0.65%     97.84% # Number of instructions fetched each cycle (Total) (Count)
system.cpu.fetch.nisnDist::3                   200597      0.27%     98.11% # Number of instructions fetched each cycle (Total) (Count)
system.cpu.fetch.nisnDist::4                   210277      0.29%     98.40% # Number of instructions fetched each cycle (Total) (Count)
system.cpu.fetch.nisnDist::5                   163108      0.22%     98.62% # Number of instructions fetched each cycle (Total) (Count)
system.cpu.fetch.nisnDist::6                   504006      0.69%     99.31% # Number of instructions fetched each cycle (Total) (Count)
system.cpu.fetch.nisnDist::7                    94617      0.13%     99.44% # Number of instructions fetched each cycle (Total) (Count)
system.cpu.fetch.nisnDist::8                   406841      0.56%    100.00% # Number of instructions fetched each cycle (Total) (Count)
system.cpu.fetch.nisnDist::overflows                0      0.00%    100.00% # Number of instructions fetched each cycle (Total) (Count)
system.cpu.fetch.nisnDist::min_value                0                       # Number of instructions fetched each cycle (Total) (Count)
system.cpu.fetch.nisnDist::max_value                8                       # Number of instructions fetched each cycle (Total) (Count)
system.cpu.fetch.nisnDist::total             73043506                       # Number of instructions fetched each cycle (Total) (Count)
system.cpu.fetch.branchRate                  0.015485                       # Number of branch fetches per cycle (Ratio)
system.cpu.fetch.rate                        0.150624                       # Number of inst fetches per cycle ((Count/Cycle))
system.cpu.icache.demandHits::cpu.inst        1745794                       # number of demand (read+write) hits (Count)
system.cpu.icache.demandHits::total           1745794                       # number of demand (read+write) hits (Count)
system.cpu.icache.overallHits::cpu.inst       1745794                       # number of overall hits (Count)
system.cpu.icache.overallHits::total          1745794                       # number of overall hits (Count)
system.cpu.icache.demandMisses::cpu.inst          365                       # number of demand (read+write) misses (Count)
system.cpu.icache.demandMisses::total             365                       # number of demand (read+write) misses (Count)
system.cpu.icache.overallMisses::cpu.inst          365                       # number of overall misses (Count)
system.cpu.icache.overallMisses::total            365                       # number of overall misses (Count)
system.cpu.icache.demandMissLatency::cpu.inst     22311996                       # number of demand (read+write) miss ticks (Tick)
system.cpu.icache.demandMissLatency::total     22311996                       # number of demand (read+write) miss ticks (Tick)
system.cpu.icache.overallMissLatency::cpu.inst     22311996                       # number of overall miss ticks (Tick)
system.cpu.icache.overallMissLatency::total     22311996                       # number of overall miss ticks (Tick)
system.cpu.icache.demandAccesses::cpu.inst      1746159                       # number of demand (read+write) accesses (Count)
system.cpu.icache.demandAccesses::total       1746159                       # number of demand (read+write) accesses (Count)
system.cpu.icache.overallAccesses::cpu.inst      1746159                       # number of overall (read+write) accesses (Count)
system.cpu.icache.overallAccesses::total      1746159                       # number of overall (read+write) accesses (Count)
system.cpu.icache.demandMissRate::cpu.inst     0.000209                       # miss rate for demand accesses (Ratio)
system.cpu.icache.demandMissRate::total      0.000209                       # miss rate for demand accesses (Ratio)
system.cpu.icache.overallMissRate::cpu.inst     0.000209                       # miss rate for overall accesses (Ratio)
system.cpu.icache.overallMissRate::total     0.000209                       # miss rate for overall accesses (Ratio)
system.cpu.icache.demandAvgMissLatency::cpu.inst 61128.756164                       # average overall miss latency in ticks ((Tick/Count))
system.cpu.icache.demandAvgMissLatency::total 61128.756164                       # average overall miss latency in ticks ((Tick/Count))
system.cpu.icache.overallAvgMissLatency::cpu.inst 61128.756164                       # average overall miss latency ((Tick/Count))
system.cpu.icache.overallAvgMissLatency::total 61128.756164                       # average overall miss latency ((Tick/Count))
system.cpu.icache.blockedCycles::no_mshrs         7401                       # number of cycles access was blocked (Cycle)
system.cpu.icache.blockedCycles::no_targets            0                       # number of cycles access was blocked (Cycle)
system.cpu.icache.blockedCauses::no_mshrs           78                       # number of times access was blocked (Count)
system.cpu.icache.blockedCauses::no_targets            0                       # number of times access was blocked (Count)
system.cpu.icache.avgBlocked::no_mshrs      94.884615                       # average number of cycles each access was blocked ((Cycle/Count))
system.cpu.icache.avgBlocked::no_targets          nan                       # average number of cycles each access was blocked ((Cycle/Count))
system.cpu.icache.demandMshrHits::cpu.inst           82                       # number of demand (read+write) MSHR hits (Count)
system.cpu.icache.demandMshrHits::total            82                       # number of demand (read+write) MSHR hits (Count)
system.cpu.icache.overallMshrHits::cpu.inst           82                       # number of overall MSHR hits (Count)
system.cpu.icache.overallMshrHits::total           82                       # number of overall MSHR hits (Count)
system.cpu.icache.demandMshrMisses::cpu.inst          283                       # number of demand (read+write) MSHR misses (Count)
system.cpu.icache.demandMshrMisses::total          283                       # number of demand (read+write) MSHR misses (Count)
system.cpu.icache.overallMshrMisses::cpu.inst          283                       # number of overall MSHR misses (Count)
system.cpu.icache.overallMshrMisses::total          283                       # number of overall MSHR misses (Count)
[...]
system.mem_ctrls.dram.perBankWrBursts::29            0                       # Per bank write bursts (Count)
system.mem_ctrls.dram.perBankWrBursts::30            0                       # Per bank write bursts (Count)
system.mem_ctrls.dram.perBankWrBursts::31            0                       # Per bank write bursts (Count)
system.mem_ctrls.dram.totQLat             10271420174                       # Total ticks spent queuing (Tick)
system.mem_ctrls.dram.totBusLat            3554014492                       # Total ticks spent in databus transfers (Tick)
system.mem_ctrls.dram.totMemAccLat        28928929626                       # Total ticks spent from burst creation until serviced by the DRAM (Tick)
system.mem_ctrls.dram.avgQLat                 9629.78                       # Average queueing delay per DRAM burst ((Tick/Count))
system.mem_ctrls.dram.avgBusLat               3332.00                       # Average bus latency per DRAM burst ((Tick/Count))
system.mem_ctrls.dram.avgMemAccLat           27121.78                       # Average memory access latency per DRAM burst ((Tick/Count))
system.mem_ctrls.dram.readRowHits              824750                       # Number of row buffer hits during reads (Count)
system.mem_ctrls.dram.writeRowHits                  0                       # Number of row buffer hits during writes (Count)
system.mem_ctrls.dram.readRowHitRate            77.32                       # Row buffer hit rate for reads (Ratio)
system.mem_ctrls.dram.writeRowHitRate             nan                       # Row buffer hit rate for writes (Ratio)
system.mem_ctrls.dram.bytesPerActivate::samples       241892                       # Bytes accessed per row activation (Byte)
system.mem_ctrls.dram.bytesPerActivate::mean   282.209383                       # Bytes accessed per row activation (Byte)
system.mem_ctrls.dram.bytesPerActivate::gmean   172.384508                       # Bytes accessed per row activation (Byte)
system.mem_ctrls.dram.bytesPerActivate::stdev   297.851180                       # Bytes accessed per row activation (Byte)
system.mem_ctrls.dram.bytesPerActivate::0-127        92445     38.22%     38.22% # Bytes accessed per row activation (Byte)
system.mem_ctrls.dram.bytesPerActivate::128-255        58406     24.15%     62.36% # Bytes accessed per row activation (Byte)
system.mem_ctrls.dram.bytesPerActivate::256-383        26281     10.86%     73.23% # Bytes accessed per row activation (Byte)
system.mem_ctrls.dram.bytesPerActivate::384-511        17034      7.04%     80.27% # Bytes accessed per row activation (Byte)
system.mem_ctrls.dram.bytesPerActivate::512-639        11713      4.84%     85.11% # Bytes accessed per row activation (Byte)
system.mem_ctrls.dram.bytesPerActivate::640-767         7355      3.04%     88.15% # Bytes accessed per row activation (Byte)
system.mem_ctrls.dram.bytesPerActivate::768-895         5127      2.12%     90.27% # Bytes accessed per row activation (Byte)
system.mem_ctrls.dram.bytesPerActivate::896-1023         4121      1.70%     91.98% # Bytes accessed per row activation (Byte)
system.mem_ctrls.dram.bytesPerActivate::1024-1151        19410      8.02%    100.00% # Bytes accessed per row activation (Byte)
system.mem_ctrls.dram.bytesPerActivate::total       241892                       # Bytes accessed per row activation (Byte)
system.mem_ctrls.dram.bytesRead              68264384                       # Total bytes read (Byte)
system.mem_ctrls.dram.bytesWritten                  0                       # Total bytes written (Byte)
system.mem_ctrls.dram.avgRdBW             1726.717593                       # Average DRAM read bandwidth in MiBytes/s ((Byte/Second))
system.mem_ctrls.dram.avgWrBW                       0                       # Average DRAM write bandwidth in MiBytes/s ((Byte/Second))
system.mem_ctrls.dram.peakBW                 19207.00                       # Theoretical peak bandwidth in MiByte/s ((Byte/Second))
system.mem_ctrls.dram.busUtil                    8.99                       # Data bus utilization in percentage (Ratio)
system.mem_ctrls.dram.busUtilRead                8.99                       # Data bus utilization in percentage for reads (Ratio)
system.mem_ctrls.dram.busUtilWrite               0.00                       # Data bus utilization in percentage for writes (Ratio)
system.mem_ctrls.dram.pageHitRate               77.32                       # Row buffer hit rate, read and write combined (Ratio)
system.mem_ctrls.dram.power_state.pwrStateResidencyTicks::UNDEFINED  39534191500                       # Cumulative time (in ticks) in various power states (Tick)
system.mem_ctrls.dram.rank0.actEnergy    418552112.160003                       # Energy for activate commands per rank (pJ) (Joule)
system.mem_ctrls.dram.rank0.preEnergy    556476252.427200                       # Energy for precharge commands per rank (pJ) (Joule)
system.mem_ctrls.dram.rank0.readEnergy   2326101603.033596                       # Energy for read commands per rank (pJ) (Joule)
system.mem_ctrls.dram.rank0.writeEnergy             0                       # Energy for write commands per rank (pJ) (Joule)
system.mem_ctrls.dram.rank0.refreshEnergy 7034947590.921966                       # Energy for refresh commands per rank (pJ) (Joule)
system.mem_ctrls.dram.rank0.actBackEnergy 33003044583.565819                       # Energy for active background per rank (pJ) (Joule)
system.mem_ctrls.dram.rank0.preBackEnergy 449648772.518383                       # Energy for precharge background per rank (pJ) (Joule)
system.mem_ctrls.dram.rank0.actPowerDownEnergy            0                       # Energy for active power-down per rank (pJ) (Joule)
system.mem_ctrls.dram.rank0.prePowerDownEnergy            0                       # Energy for precharge power-down per rank (pJ) (Joule)
system.mem_ctrls.dram.rank0.selfRefreshEnergy            0                       # Energy for self refresh per rank (pJ) (Joule)
system.mem_ctrls.dram.rank0.totalEnergy  43788770914.627205                       # Total energy per rank (pJ) (Joule)
system.mem_ctrls.dram.rank0.averagePower  1107.617717                       # Core power per rank (mW) (Watt)
system.mem_ctrls.dram.rank0.totalIdleTime            0                       # Total Idle time Per DRAM Rank (Tick)
system.mem_ctrls.dram.rank0.pwrStateTime::IDLE    542731120                       # Time in different power states (Tick)
system.mem_ctrls.dram.rank0.pwrStateTime::REF   1777300000                       # Time in different power states (Tick)
system.mem_ctrls.dram.rank0.pwrStateTime::SREF            0                       # Time in different power states (Tick)
system.mem_ctrls.dram.rank0.pwrStateTime::PRE_PDN            0                       # Time in different power states (Tick)
system.mem_ctrls.dram.rank0.pwrStateTime::ACT  37214160380                       # Time in different power states (Tick)
system.mem_ctrls.dram.rank0.pwrStateTime::ACT_PDN            0                       # Time in different power states (Tick)
system.mem_ctrls.dram.rank1.actEnergy    335814740.352001                       # Energy for activate commands per rank (pJ) (Joule)
system.mem_ctrls.dram.rank1.preEnergy    446490416.366400                       # Energy for precharge commands per rank (pJ) (Joule)
system.mem_ctrls.dram.rank1.readEnergy   2160486291.667197                       # Energy for read commands per rank (pJ) (Joule)
system.mem_ctrls.dram.rank1.writeEnergy             0                       # Energy for write commands per rank (pJ) (Joule)
system.mem_ctrls.dram.rank1.refreshEnergy 7034947590.921966                       # Energy for refresh commands per rank (pJ) (Joule)
system.mem_ctrls.dram.rank1.actBackEnergy 32826070089.690601                       # Energy for active background per rank (pJ) (Joule)
system.mem_ctrls.dram.rank1.preBackEnergy 585629174.591990                       # Energy for precharge background per rank (pJ) (Joule)
system.mem_ctrls.dram.rank1.actPowerDownEnergy            0                       # Energy for active power-down per rank (pJ) (Joule)
system.mem_ctrls.dram.rank1.prePowerDownEnergy            0                       # Energy for precharge power-down per rank (pJ) (Joule)
system.mem_ctrls.dram.rank1.selfRefreshEnergy            0                       # Energy for self refresh per rank (pJ) (Joule)
system.mem_ctrls.dram.rank1.totalEnergy  43389438303.590424                       # Total energy per rank (pJ) (Joule)
system.mem_ctrls.dram.rank1.averagePower  1097.516774                       # Core power per rank (mW) (Watt)
system.mem_ctrls.dram.rank1.totalIdleTime            0                       # Total Idle time Per DRAM Rank (Tick)
system.mem_ctrls.dram.rank1.pwrStateTime::IDLE    749602784                       # Time in different power states (Tick)
system.mem_ctrls.dram.rank1.pwrStateTime::REF   1777300000                       # Time in different power states (Tick)
system.mem_ctrls.dram.rank1.pwrStateTime::SREF            0                       # Time in different power states (Tick)
system.mem_ctrls.dram.rank1.pwrStateTime::PRE_PDN            0                       # Time in different power states (Tick)
system.mem_ctrls.dram.rank1.pwrStateTime::ACT  37007288716                       # Time in different power states (Tick)
system.mem_ctrls.dram.rank1.pwrStateTime::ACT_PDN            0                       # Time in different power states (Tick)
system.mem_ctrls.power_state.pwrStateResidencyTicks::UNDEFINED  39534191500                       # Cumulative time (in ticks) in various power states (Tick)
system.membus.transDist::ReadResp             1066631                       # Transaction distribution (Count)
system.membus.transDist::CleanEvict           1057647                       # Transaction distribution (Count)
system.membus.transDist::ReadCleanReq         1066631                       # Transaction distribution (Count)
system.membus.pktCount_system.l2.mem_side_port::system.mem_ctrls.port      3190909                       # Packet count per connected requestor and responder (Count)
system.membus.pktCount_system.l2.mem_side_port::total      3190909                       # Packet count per connected requestor and responder (Count)
system.membus.pktCount::total                 3190909                       # Packet count per connected requestor and responder (Count)
system.membus.pktSize_system.l2.mem_side_port::system.mem_ctrls.port     68264384                       # Cumulative packet size per connected requestor and responder (Byte)
system.membus.pktSize_system.l2.mem_side_port::total     68264384                       # Cumulative packet size per connected requestor and responder (Byte)
system.membus.pktSize::total                 68264384                       # Cumulative packet size per connected requestor and responder (Byte)
system.membus.snoops                                0                       # Total snoops (Count)
system.membus.snoopTraffic                          0                       # Total snoop traffic (Byte)
system.membus.snoopFanout::samples            1066631                       # Request fanout histogram (Count)
system.membus.snoopFanout::mean                     0                       # Request fanout histogram (Count)
system.membus.snoopFanout::stdev                    0                       # Request fanout histogram (Count)
system.membus.snoopFanout::underflows               0      0.00%      0.00% # Request fanout histogram (Count)
system.membus.snoopFanout::0                  1066631    100.00%    100.00% # Request fanout histogram (Count)
system.membus.snoopFanout::1                        0      0.00%    100.00% # Request fanout histogram (Count)
system.membus.snoopFanout::2                        0      0.00%    100.00% # Request fanout histogram (Count)
system.membus.snoopFanout::overflows                0      0.00%    100.00% # Request fanout histogram (Count)
system.membus.snoopFanout::min_value                0                       # Request fanout histogram (Count)
system.membus.snoopFanout::max_value                0                       # Request fanout histogram (Count)
system.membus.snoopFanout::total              1066631                       # Request fanout histogram (Count)
system.membus.badaddr_responder.power_state.pwrStateResidencyTicks::UNDEFINED  39534191500                       # Cumulative time (in ticks) in various power states (Tick)
system.membus.power_state.pwrStateResidencyTicks::UNDEFINED  39534191500                       # Cumulative time (in ticks) in various power states (Tick)
system.membus.reqLayer4.occupancy          2685677000                       # Layer occupancy (ticks) (Tick)
system.membus.reqLayer4.utilization               0.1                       # Layer utilization (Ratio)
system.membus.respLayer2.occupancy         5667326516                       # Layer occupancy (ticks) (Tick)
system.membus.respLayer2.utilization              0.1                       # Layer utilization (Ratio)
system.membus.snoop_filter.totRequests        2124278                       # Total number of requests made to the snoop filter. (Count)
system.membus.snoop_filter.hitSingleRequests      1066599                       # Number of requests hitting in the snoop filter with a single holder of the requested data. (Count)
system.membus.snoop_filter.hitMultiRequests            0                       # Number of requests hitting in the snoop filter with multiple (>1) holders of the requested data. (Count)
system.membus.snoop_filter.totSnoops                0                       # Total number of snoops made to the snoop filter. (Count)
system.membus.snoop_filter.hitSingleSnoops            0                       # Number of snoops hitting in the snoop filter with a single holder of the requested data. (Count)
system.membus.snoop_filter.hitMultiSnoops            0                       # Number of snoops hitting in the snoop filter with multiple (>1) holders of the requested data. (Count)
system.mmcs.power_state.pwrStateResidencyTicks::UNDEFINED  39534191500                       # Cumulative time (in ticks) in various power states (Tick)
system.tol2bus.transDist::ReadResp            1066678                       # Transaction distribution (Count)
system.tol2bus.transDist::WritebackDirty          353                       # Transaction distribution (Count)
system.tol2bus.transDist::CleanEvict          1066599                       # Transaction distribution (Count)
system.tol2bus.transDist::ReadExReq               274                       # Transaction distribution (Count)
system.tol2bus.transDist::ReadExResp              274                       # Transaction distribution (Count)
system.tol2bus.transDist::ReadSharedReq       1066679                       # Transaction distribution (Count)
system.tol2bus.pktCount_system.cpu.dcache.mem_side_port::system.l2.cpu_side_port      2938966                       # Packet count per connected requestor and responder (Count)
system.tol2bus.pktCount_system.cpu.dtb_walker_cache.mem_side_port::system.l2.cpu_side_port       261891                       # Packet count per connected requestor and responder (Count)
system.tol2bus.pktCount::total                3200857                       # Packet count per connected requestor and responder (Count)
system.tol2bus.pktSize_system.cpu.dcache.mem_side_port::system.l2.cpu_side_port     62720512                       # Cumulative packet size per connected requestor and responder (Byte)
system.tol2bus.pktSize_system.cpu.dtb_walker_cache.mem_side_port::system.l2.cpu_side_port      5587008                       # Cumulative packet size per connected requestor and responder (Byte)
system.tol2bus.pktSize::total                68307520                       # Cumulative packet size per connected requestor and responder (Byte)
system.tol2bus.snoops                               0                       # Total snoops (Count)
system.tol2bus.snoopTraffic                         0                       # Total snoop traffic (Byte)
system.tol2bus.snoopFanout::samples           1066953                       # Request fanout histogram (Count)
system.tol2bus.snoopFanout::mean             0.008390                       # Request fanout histogram (Count)
system.tol2bus.snoopFanout::stdev            0.091213                       # Request fanout histogram (Count)
system.tol2bus.snoopFanout::underflows              0      0.00%      0.00% # Request fanout histogram (Count)
system.tol2bus.snoopFanout::0                 1058001     99.16%     99.16% # Request fanout histogram (Count)
system.tol2bus.snoopFanout::1                    8952      0.84%    100.00% # Request fanout histogram (Count)
system.tol2bus.snoopFanout::2                       0      0.00%    100.00% # Request fanout histogram (Count)
system.tol2bus.snoopFanout::3                       0      0.00%    100.00% # Request fanout histogram (Count)
system.tol2bus.snoopFanout::4                       0      0.00%    100.00% # Request fanout histogram (Count)
system.tol2bus.snoopFanout::overflows               0      0.00%    100.00% # Request fanout histogram (Count)
system.tol2bus.snoopFanout::min_value               0                       # Request fanout histogram (Count)
system.tol2bus.snoopFanout::max_value               1                       # Request fanout histogram (Count)
system.tol2bus.snoopFanout::total             1066953                       # Request fanout histogram (Count)
system.tol2bus.power_state.pwrStateResidencyTicks::UNDEFINED  39534191500                       # Cumulative time (in ticks) in various power states (Tick)
system.tol2bus.reqLayer0.occupancy         1067129000                       # Layer occupancy (ticks) (Tick)
system.tol2bus.reqLayer0.utilization              0.0                       # Layer utilization (Ratio)
system.tol2bus.respLayer1.occupancy         979655000                       # Layer occupancy (ticks) (Tick)
system.tol2bus.respLayer1.utilization             0.0                       # Layer utilization (Ratio)
system.tol2bus.respLayer3.occupancy          87297000                       # Layer occupancy (ticks) (Tick)
system.tol2bus.respLayer3.utilization             0.0                       # Layer utilization (Ratio)
system.tol2bus.snoop_filter.totRequests       2133905                       # Total number of requests made to the snoop filter. (Count)
system.tol2bus.snoop_filter.hitSingleRequests      1066952                       # Number of requests hitting in the snoop filter with a single holder of the requested data. (Count)
system.tol2bus.snoop_filter.hitMultiRequests         8952                       # Number of requests hitting in the snoop filter with multiple (>1) holders of the requested data. (Count)
system.tol2bus.snoop_filter.totSnoops               0                       # Total number of snoops made to the snoop filter. (Count)
system.tol2bus.snoop_filter.hitSingleSnoops            0                       # Number of snoops hitting in the snoop filter with a single holder of the requested data. (Count)
system.tol2bus.snoop_filter.hitMultiSnoops            0                       # Number of snoops hitting in the snoop filter with multiple (>1) holders of the requested data. (Count)
system.uartlite.power_state.pwrStateResidencyTicks::UNDEFINED  39534191500                       # Cumulative time (in ticks) in various power states (Tick)
system.voltage_domain.voltage                       1                       # Voltage in Volts (Volt)
system.workload.inst.arm                            0                       # number of arm instructions executed (Count)
system.workload.inst.quiesce                        0                       # number of quiesce instructions executed (Count)

---------- End Simulation Statistics   ----------
