
---------- Begin Simulation Statistics ----------
simSeconds                                   0.005302                       # Number of seconds simulated (Second)
simTicks                                   5301943000                       # Number of ticks simulated (Tick)
finalTick                                  5301943000                       # Number of ticks from beginning of simulation (restored from checkpoints and never reset) (Tick)
simFreq                                  1000000000000                       # The number of ticks per simulated second ((Tick/Second))
hostSeconds                                    260.27                       # Real time elapsed on the host (Second)
hostTickRate                                 20370811                       # The number of ticks simulated per host second (ticks/s) ((Tick/Second))
hostMemory                                   19410564                       # Number of bytes of host memory used (Byte)
simInsts                                     10000001                       # Number of instructions simulated (Count)
simOps                                       10000001                       # Number of ops (including micro ops) simulated (Count)
hostInstRate                                    38421                       # Simulator instruction rate (inst/s) ((Count/Second))
hostOpRate                                      38421                       # Simulator op (including micro ops) rate (op/s) ((Count/Second))
system.bridge.power_state.pwrStateResidencyTicks::UNDEFINED   5301943000                       # Cumulative time (in ticks) in various power states (Tick)
system.clk_domain.clock                          1000                       # Clock period in ticks (Tick)
system.cpu.numCycles                         10603887                       # Number of cpu cycles simulated (Cycle)
system.cpu.numWorkItemsStarted                      0                       # Number of work items this cpu started (Count)
system.cpu.numWorkItemsCompleted                    0                       # Number of work items this cpu completed (Count)
system.cpu.instsAdded                        16054303                       # Number of instructions added to the IQ (excludes non-spec) (Count)
system.cpu.nonSpecInstsAdded                       33                       # Number of non-speculative instructions added to the IQ (Count)
system.cpu.instsIssued                       14661727                       # Number of instructions issued (Count)
system.cpu.squashedInstsIssued                  52504                       # Number of squashed instructions issued (Count)
system.cpu.squashedInstsExamined              6054309                       # Number of squashed instructions iterated over during squash; mainly for profiling (Count)
system.cpu.squashedOperandsExamined           2796830                       # Number of squashed operands that are examined and possibly removed from graph (Count)
system.cpu.numIssuedDist::samples            10603332                       # Number of insts issued each cycle (Count)
system.cpu.numIssuedDist::mean               1.382747                       # Number of insts issued each cycle (Count)
system.cpu.numIssuedDist::stdev              2.075768                       # Number of insts issued each cycle (Count)
system.cpu.numIssuedDist::underflows                0      0.00%      0.00% # Number of insts issued each cycle (Count)
system.cpu.numIssuedDist::0                   6228126     58.74%     58.74% # Number of insts issued each cycle (Count)
system.cpu.numIssuedDist::1                    963612      9.09%     67.83% # Number of insts issued each cycle (Count)
system.cpu.numIssuedDist::2                    834955      7.87%     75.70% # Number of insts issued each cycle (Count)
system.cpu.numIssuedDist::3                    747172      7.05%     82.75% # Number of insts issued each cycle (Count)
system.cpu.numIssuedDist::4                    499020      4.71%     87.45% # Number of insts issued each cycle (Count)
system.cpu.numIssuedDist::5                    659627      6.22%     93.67% # Number of insts issued each cycle (Count)
system.cpu.numIssuedDist::6                    318524      3.00%     96.68% # Number of insts issued each cycle (Count)
system.cpu.numIssuedDist::7                    237038      2.24%     98.91% # Number of insts issued each cycle (Count)
system.cpu.numIssuedDist::8                    115258      1.09%    100.00% # Number of insts issued each cycle (Count)
system.cpu.numIssuedDist::overflows                 0      0.00%    100.00% # Number of insts issued each cycle (Count)
system.cpu.numIssuedDist::min_value                 0                       # Number of insts issued each cycle (Count)
system.cpu.numIssuedDist::max_value                 8                       # Number of insts issued each cycle (Count)
system.cpu.numIssuedDist::total              10603332                       # Number of insts issued each cycle (Count)
system.cpu.statFuBusy::No_OpClass                   0      0.00%      0.00% # attempts to use FU when none available (Count)
system.cpu.statFuBusy::IntAlu                   26813      0.97%      0.97% # attempts to use FU when none available (Count)
system.cpu.statFuBusy::IntMult                      0      0.00%      0.97% # attempts to use FU when none available (Count)
system.cpu.statFuBusy::IntDiv                       0      0.00%      0.97% # attempts to use FU when none available (Count)
system.cpu.statFuBusy::FloatAdd                     0      0.00%      0.97% # attempts to use FU when none available (Count)
system.cpu.statFuBusy::FloatCmp                 64965      2.35%      3.32% # attempts to use FU when none available (Count)
system.cpu.statFuBusy::FloatCvt                     0      0.00%      3.32% # attempts to use FU when none available (Count)
system.cpu.statFuBusy::FloatMult               580668     20.97%     24.29% # attempts to use FU when none available (Count)
system.cpu.statFuBusy::FloatMultAcc                 0      0.00%     24.29% # attempts to use FU when none available (Count)
system.cpu.statFuBusy::FloatDiv                975968     35.25%     59.54% # attempts to use FU when none available (Count)
system.cpu.statFuBusy::FloatMisc              1119716     40.45%     99.99% # attempts to use FU when none available (Count)
system.cpu.statFuBusy::FloatSqrt                    0      0.00%     99.99% # attempts to use FU when none available (Count)
system.cpu.statFuBusy::SimdAdd                      0      0.00%     99.99% # attempts to use FU when none available (Count)
system.cpu.statFuBusy::SimdAddAcc                   0      0.00%     99.99% # attempts to use FU when none available (Count)
system.cpu.statFuBusy::SimdAlu                      0      0.00%     99.99% # attempts to use FU when none available (Count)
system.cpu.statFuBusy::SimdCmp                      0      0.00%     99.99% # attempts to use FU when none available (Count)
system.cpu.statFuBusy::SimdCvt                      0      0.00%     99.99% # attempts to use FU when none available (Count)
system.cpu.statFuBusy::SimdMisc                     0      0.00%     99.99% # attempts to use FU when none available (Count)
system.cpu.statFuBusy::SimdMult                     0      0.00%     99.99% # attempts to use FU when none available (Count)
system.cpu.statFuBusy::SimdMultAcc                  0      0.00%     99.99% # attempts to use FU when none available (Count)
system.cpu.statFuBusy::SimdShift                    0      0.00%     99.99% # attempts to use FU when none available (Count)
system.cpu.statFuBusy::SimdShiftAcc                 0      0.00%     99.99% # attempts to use FU when none available (Count)
system.cpu.statFuBusy::SimdDiv                      0      0.00%     99.99% # attempts to use FU when none available (Count)
system.cpu.statFuBusy::SimdSqrt                     0      0.00%     99.99% # attempts to use FU when none available (Count)
system.cpu.statFuBusy::SimdFloatAdd                 0      0.00%     99.99% # attempts to use FU when none available (Count)
system.cpu.statFuBusy::SimdFloatAlu                 0      0.00%     99.99% # attempts to use FU when none available (Count)
system.cpu.statFuBusy::SimdFloatCmp                 0      0.00%     99.99% # attempts to use FU when none available (Count)
system.cpu.statFuBusy::SimdFloatCvt                 0      0.00%     99.99% # attempts to use FU when none available (Count)
system.cpu.statFuBusy::SimdFloatDiv                 0      0.00%     99.99% # attempts to use FU when none available (Count)
system.cpu.statFuBusy::SimdFloatMisc                0      0.00%     99.99% # attempts to use FU when none available (Count)
system.cpu.statFuBusy::SimdFloatMult                0      0.00%     99.99% # attempts to use FU when none available (Count)
system.cpu.statFuBusy::SimdFloatMultAcc             0      0.00%     99.99% # attempts to use FU when none available (Count)
system.cpu.statFuBusy::SimdFloatSqrt                0      0.00%     99.99% # attempts to use FU when none available (Count)
system.cpu.statFuBusy::SimdReduceAdd                0      0.00%     99.99% # attempts to use FU when none available (Count)
system.cpu.statFuBusy::SimdReduceAlu                0      0.00%     99.99% # attempts to use FU when none available (Count)
system.cpu.statFuBusy::SimdReduceCmp                0      0.00%     99.99% # attempts to use FU when none available (Count)
system.cpu.statFuBusy::SimdFloatReduceAdd            0      0.00%     99.99% # attempts to use FU when none available (Count)
system.cpu.statFuBusy::SimdFloatReduceCmp            0      0.00%     99.99% # attempts to use FU when none available (Count)
system.cpu.statFuBusy::SimdAes                      0      0.00%     99.99% # attempts to use FU when none available (Count)
system.cpu.statFuBusy::SimdAesMix                   0      0.00%     99.99% # attempts to use FU when none available (Count)
system.cpu.statFuBusy::SimdSha1Hash                 0      0.00%     99.99% # attempts to use FU when none available (Count)
system.cpu.statFuBusy::SimdSha1Hash2                0      0.00%     99.99% # attempts to use FU when none available (Count)
system.cpu.statFuBusy::SimdSha256Hash               0      0.00%     99.99% # attempts to use FU when none available (Count)
system.cpu.statFuBusy::SimdSha256Hash2              0      0.00%     99.99% # attempts to use FU when none available (Count)
system.cpu.statFuBusy::SimdShaSigma2                0      0.00%     99.99% # attempts to use FU when none available (Count)
system.cpu.statFuBusy::SimdShaSigma3                0      0.00%     99.99% # attempts to use FU when none available (Count)
system.cpu.statFuBusy::SimdPredAlu                  0      0.00%     99.99% # attempts to use FU when none available (Count)
system.cpu.statFuBusy::MemRead                     21      0.00%     99.99% # attempts to use FU when none available (Count)
system.cpu.statFuBusy::MemWrite                    13      0.00%     99.99% # attempts to use FU when none available (Count)
system.cpu.statFuBusy::FloatMemRead               289      0.01%    100.00% # attempts to use FU when none available (Count)
system.cpu.statFuBusy::FloatMemWrite                0      0.00%    100.00% # attempts to use FU when none available (Count)
system.cpu.statFuBusy::IprAccess                    0      0.00%    100.00% # attempts to use FU when none available (Count)
system.cpu.statFuBusy::InstPrefetch                 0      0.00%    100.00% # attempts to use FU when none available (Count)
system.cpu.statIssuedInstType_0::No_OpClass           32      0.00%      0.00% # Number of instructions issued per FU type, per thread (Count)
system.cpu.statIssuedInstType_0::IntAlu       8433570     57.52%     57.52% # Number of instructions issued per FU type, per thread (Count)
system.cpu.statIssuedInstType_0::IntMult            0      0.00%     57.52% # Number of instructions issued per FU type, per thread (Count)
system.cpu.statIssuedInstType_0::IntDiv             0      0.00%     57.52% # Number of instructions issued per FU type, per thread (Count)
system.cpu.statIssuedInstType_0::FloatAdd            0      0.00%     57.52% # Number of instructions issued per FU type, per thread (Count)
system.cpu.statIssuedInstType_0::FloatCmp      1094868      7.47%     64.99% # Number of instructions issued per FU type, per thread (Count)
system.cpu.statIssuedInstType_0::FloatCvt            0      0.00%     64.99% # Number of instructions issued per FU type, per thread (Count)
system.cpu.statIssuedInstType_0::FloatMult       499030      3.40%     68.39% # Number of instructions issued per FU type, per thread (Count)
system.cpu.statIssuedInstType_0::FloatMultAcc            0      0.00%     68.39% # Number of instructions issued per FU type, per thread (Count)
system.cpu.statIssuedInstType_0::FloatDiv       280343      1.91%     70.30% # Number of instructions issued per FU type, per thread (Count)
system.cpu.statIssuedInstType_0::FloatMisc       990884      6.76%     77.06% # Number of instructions issued per FU type, per thread (Count)
system.cpu.statIssuedInstType_0::FloatSqrt            0      0.00%     77.06% # Number of instructions issued per FU type, per thread (Count)
system.cpu.statIssuedInstType_0::SimdAdd            0      0.00%     77.06% # Number of instructions issued per FU type, per thread (Count)
system.cpu.statIssuedInstType_0::SimdAddAcc            0      0.00%     77.06% # Number of instructions issued per FU type, per thread (Count)
system.cpu.statIssuedInstType_0::SimdAlu            0      0.00%     77.06% # Number of instructions issued per FU type, per thread (Count)
system.cpu.statIssuedInstType_0::SimdCmp            0      0.00%     77.06% # Number of instructions issued per FU type, per thread (Count)
system.cpu.statIssuedInstType_0::SimdCvt            0      0.00%     77.06% # Number of instructions issued per FU type, per thread (Count)
system.cpu.statIssuedInstType_0::SimdMisc            0      0.00%     77.06% # Number of instructions issued per FU type, per thread (Count)
system.cpu.statIssuedInstType_0::SimdMult            0      0.00%     77.06% # Number of instructions issued per FU type, per thread (Count)
system.cpu.statIssuedInstType_0::SimdMultAcc            0      0.00%     77.06% # Number of instructions issued per FU type, per thread (Count)
system.cpu.statIssuedInstType_0::SimdShift            0      0.00%     77.06% # Number of instructions issued per FU type, per thread (Count)
system.cpu.statIssuedInstType_0::SimdShiftAcc            0      0.00%     77.06% # Number of instructions issued per FU type, per thread (Count)
system.cpu.statIssuedInstType_0::SimdDiv            0      0.00%     77.06% # Number of instructions issued per FU type, per thread (Count)
system.cpu.statIssuedInstType_0::SimdSqrt            0      0.00%     77.06% # Number of instructions issued per FU type, per thread (Count)
system.cpu.statIssuedInstType_0::SimdFloatAdd            0      0.00%     77.06% # Number of instructions issued per FU type, per thread (Count)
system.cpu.statIssuedInstType_0::SimdFloatAlu            0      0.00%     77.06% # Number of instructions issued per FU type, per thread (Count)
system.cpu.statIssuedInstType_0::SimdFloatCmp            0      0.00%     77.06% # Number of instructions issued per FU type, per thread (Count)
system.cpu.statIssuedInstType_0::SimdFloatCvt            0      0.00%     77.06% # Number of instructions issued per FU type, per thread (Count)
system.cpu.statIssuedInstType_0::SimdFloatDiv            0      0.00%     77.06% # Number of instructions issued per FU type, per thread (Count)
system.cpu.statIssuedInstType_0::SimdFloatMisc            0      0.00%     77.06% # Number of instructions issued per FU type, per thread (Count)
system.cpu.statIssuedInstType_0::SimdFloatMult            0      0.00%     77.06% # Number of instructions issued per FU type, per thread (Count)
system.cpu.statIssuedInstType_0::SimdFloatMultAcc            0      0.00%     77.06% # Number of instructions issued per FU type, per thread (Count)
system.cpu.statIssuedInstType_0::SimdFloatSqrt            0      0.00%     77.06% # Number of instructions issued per FU type, per thread (Count)
system.cpu.statIssuedInstType_0::SimdReduceAdd            0      0.00%     77.06% # Number of instructions issued per FU type, per thread (Count)
system.cpu.statIssuedInstType_0::SimdReduceAlu            0      0.00%     77.06% # Number of instructions issued per FU type, per thread (Count)
system.cpu.statIssuedInstType_0::SimdReduceCmp            0      0.00%     77.06% # Number of instructions issued per FU type, per thread (Count)
system.cpu.statIssuedInstType_0::SimdFloatReduceAdd            0      0.00%     77.06% # Number of instructions issued per FU type, per thread (Count)
system.cpu.statIssuedInstType_0::SimdFloatReduceCmp            0      0.00%     77.06% # Number of instructions issued per FU type, per thread (Count)
system.cpu.statIssuedInstType_0::SimdAes            0      0.00%     77.06% # Number of instructions issued per FU type, per thread (Count)
system.cpu.statIssuedInstType_0::SimdAesMix            0      0.00%     77.06% # Number of instructions issued per FU type, per thread (Count)
system.cpu.statIssuedInstType_0::SimdSha1Hash            0      0.00%     77.06% # Number of instructions issued per FU type, per thread (Count)
system.cpu.statIssuedInstType_0::SimdSha1Hash2            0      0.00%     77.06% # Number of instructions issued per FU type, per thread (Count)
system.cpu.statIssuedInstType_0::SimdSha256Hash            0      0.00%     77.06% # Number of instructions issued per FU type, per thread (Count)
system.cpu.statIssuedInstType_0::SimdSha256Hash2            0      0.00%     77.06% # Number of instructions issued per FU type, per thread (Count)
system.cpu.statIssuedInstType_0::SimdShaSigma2            0      0.00%     77.06% # Number of instructions issued per FU type, per thread (Count)
system.cpu.statIssuedInstType_0::SimdShaSigma3            0      0.00%     77.06% # Number of instructions issued per FU type, per thread (Count)
system.cpu.statIssuedInstType_0::SimdPredAlu            0      0.00%     77.06% # Number of instructions issued per FU type, per thread (Count)
system.cpu.statIssuedInstType_0::MemRead          620      0.00%     77.07% # Number of instructions issued per FU type, per thread (Count)
system.cpu.statIssuedInstType_0::MemWrite          149      0.00%     77.07% # Number of instructions issued per FU type, per thread (Count)
system.cpu.statIssuedInstType_0::FloatMemRead      3362182     22.93%    100.00% # Number of instructions issued per FU type, per thread (Count)
system.cpu.statIssuedInstType_0::FloatMemWrite           49      0.00%    100.00% # Number of instructions issued per FU type, per thread (Count)
system.cpu.statIssuedInstType_0::IprAccess            0      0.00%    100.00% # Number of instructions issued per FU type, per thread (Count)
system.cpu.statIssuedInstType_0::InstPrefetch            0      0.00%    100.00% # Number of instructions issued per FU type, per thread (Count)
system.cpu.statIssuedInstType_0::total       14661727                       # Number of instructions issued per FU type, per thread (Count)
system.cpu.issueRate                         1.382675                       # Inst issue rate ((Count/Cycle))
system.cpu.fuBusy                             2768453                       # FU busy when requested (Count)
system.cpu.fuBusyRate                        0.188822                       # FU busy rate (busy events/executed inst) ((Count/Count))
system.cpu.intInstQueueReads                 27499954                       # Number of integer instruction queue reads (Count)
system.cpu.intInstQueueWrites                12243134                       # Number of integer instruction queue writes (Count)
system.cpu.intInstQueueWakeupAccesses         8353862                       # Number of integer instruction queue wakeup accesses (Count)
system.cpu.fpInstQueueReads                  15247783                       # Number of floating instruction queue reads (Count)
system.cpu.fpInstQueueWrites                  9865518                       # Number of floating instruction queue writes (Count)
system.cpu.fpInstQueueWakeupAccesses          5714954                       # Number of floating instruction queue wakeup accesses (Count)
system.cpu.vecInstQueueReads                        0                       # Number of vector instruction queue reads (Count)
system.cpu.vecInstQueueWrites                       0                       # Number of vector instruction queue writes (Count)
system.cpu.vecInstQueueWakeupAccesses               0                       # Number of vector instruction queue wakeup accesses (Count)
system.cpu.intAluAccesses                     8461186                       # Number of integer alu accesses (Count)
system.cpu.fpAluAccesses                      8968962                       # Number of floating point alu accesses (Count)
system.cpu.vecAluAccesses                           0                       # Number of vector alu accesses (Count)
system.cpu.numInsts                          14440840                       # Number of executed instructions (Count)
system.cpu.numLoadInsts                       3281662                       # Number of load instructions executed (Count)
system.cpu.numSquashedInsts                    204166                       # Number of squashed instructions skipped in execute (Count)
system.cpu.numSwp                                   0                       # Number of swp insts executed (Count)
system.cpu.numNop                                   0                       # Number of nop insts executed (Count)
system.cpu.numRefs                            3281855                       # Number of memory reference insts executed (Count)
system.cpu.numBranches                        2104475                       # Number of branches executed (Count)
system.cpu.numStoreInsts                          193                       # Number of stores executed (Count)
system.cpu.numRate                           1.361844                       # Inst execution rate ((Count/Cycle))
system.cpu.timesIdled                               6                       # Number of times that the entire CPU went into an idle state and unscheduled itself (Count)
system.cpu.idleCycles                             555                       # Total number of cycles that the CPU has spent unscheduled due to idling (Cycle)
system.cpu.committedInsts                    10000001                       # Number of Instructions Simulated (Count)
system.cpu.committedOps                      10000001                       # Number of Ops (including micro ops) Simulated (Count)
system.cpu.cpi                               1.060389                       # CPI: Cycles Per Instruction ((Cycle/Count))
system.cpu.totalCpi                          1.060389                       # CPI: Total CPI of All Threads ((Cycle/Count))
system.cpu.ipc                               0.943051                       # IPC: Instructions Per Cycle ((Count/Cycle))
system.cpu.totalIpc                          0.943051                       # IPC: Total IPC of All Threads ((Count/Cycle))
system.cpu.intRegfileReads                   16848103                       # Number of integer regfile reads (Count)
system.cpu.intRegfileWrites                   7341546                       # Number of integer regfile writes (Count)
system.cpu.fpRegfileReads                     5610997                       # Number of floating regfile reads (Count)
system.cpu.fpRegfileWrites                    4660894                       # Number of floating regfile writes (Count)
system.cpu.miscRegfileReads                 130479195                       # number of misc regfile reads (Count)
system.cpu.miscRegfileWrites                  4414298                       # number of misc regfile writes (Count)
system.cpu.lastCommitTick                  5301943000                       # The last tick to commit an instruction (Count)
system.cpu.MemDepUnit__0.insertedLoads        3393422                       # Number of loads inserted to the mem dependence unit. (Count)
system.cpu.MemDepUnit__0.insertedStores           519                       # Number of stores inserted to the mem dependence unit. (Count)
system.cpu.MemDepUnit__0.conflictingLoads          429                       # Number of conflicting loads. (Count)
system.cpu.MemDepUnit__0.conflictingStores          125                       # Number of conflicting stores. (Count)
system.cpu.MemDepUnit__1.insertedLoads              0                       # Number of loads inserted to the mem dependence unit. (Count)
system.cpu.MemDepUnit__1.insertedStores             0                       # Number of stores inserted to the mem dependence unit. (Count)
system.cpu.MemDepUnit__1.conflictingLoads            0                       # Number of conflicting loads. (Count)
system.cpu.MemDepUnit__1.conflictingStores            0                       # Number of conflicting stores. (Count)
system.cpu.MemDepUnit__2.insertedLoads              0                       # Number of loads inserted to the mem dependence unit. (Count)
system.cpu.MemDepUnit__2.insertedStores             0                       # Number of stores inserted to the mem dependence unit. (Count)
system.cpu.MemDepUnit__2.conflictingLoads            0                       # Number of conflicting loads. (Count)
system.cpu.MemDepUnit__2.conflictingStores            0                       # Number of conflicting stores. (Count)
system.cpu.MemDepUnit__3.insertedLoads              0                       # Number of loads inserted to the mem dependence unit. (Count)
system.cpu.MemDepUnit__3.insertedStores             0                       # Number of stores inserted to the mem dependence unit. (Count)
system.cpu.MemDepUnit__3.conflictingLoads            0                       # Number of conflicting loads. (Count)
system.cpu.MemDepUnit__3.conflictingStores            0                       # Number of conflicting stores. (Count)
system.cpu.branchPred.lookups                       0                       # Number of BP lookups (Count)
system.cpu.branchPred.condPredicted                 0                       # Number of conditional branches predicted (Count)
system.cpu.branchPred.condIncorrect             86012                       # Number of conditional branches incorrect (Count)
system.cpu.branchPred.BTBLookups                    0                       # Number of BTB lookups (Count)
system.cpu.branchPred.BTBHits                       0                       # Number of BTB hits (Count)
system.cpu.branchPred.BTBHitRatio                 nan                       # BTB Hit Ratio (Ratio)
system.cpu.branchPred.RASUsed                       0                       # Number of times the RAS was used to get a target. (Count)
system.cpu.branchPred.RASIncorrect                  8                       # Number of incorrect RAS predictions. (Count)
system.cpu.branchPred.indirectLookups               0                       # Number of indirect predictor lookups. (Count)
system.cpu.branchPred.indirectHits                  0                       # Number of indirect target hits. (Count)
system.cpu.branchPred.indirectMisses                0                       # Number of indirect misses. (Count)
system.cpu.branchPred.indirectMispredicted            8                       # Number of mispredicted indirect branches. (Count)
system.cpu.branchPred.stream_tage.coldMisses            0                       # ittage the provider component lookup hit (Count)
system.cpu.branchPred.stream_tage.capacityMisses            0                       # ittage the alternate prediction lookup hit (Count)
system.cpu.branchPred.stream_tage.compulsoryMisses            0                       # ittage the provider component pred hit (Count)
system.cpu.branchPred.stream_tage.providerTableDist::samples      5328893                       # the distribution of provider component (Count)
system.cpu.branchPred.stream_tage.providerTableDist::mean     3.415803                       # the distribution of provider component (Count)
system.cpu.branchPred.stream_tage.providerTableDist::stdev     3.042199                       # the distribution of provider component (Count)
system.cpu.branchPred.stream_tage.providerTableDist::underflows            0      0.00%      0.00% # the distribution of provider component (Count)
system.cpu.branchPred.stream_tage.providerTableDist::0       884250     16.59%     16.59% # the distribution of provider component (Count)
system.cpu.branchPred.stream_tage.providerTableDist::1       806476     15.13%     31.73% # the distribution of provider component (Count)
system.cpu.branchPred.stream_tage.providerTableDist::2       819941     15.39%     47.11% # the distribution of provider component (Count)
system.cpu.branchPred.stream_tage.providerTableDist::3      1078316     20.24%     67.35% # the distribution of provider component (Count)
system.cpu.branchPred.stream_tage.providerTableDist::4       109826      2.06%     69.41% # the distribution of provider component (Count)
system.cpu.branchPred.stream_tage.providerTableDist::5       321613      6.04%     75.45% # the distribution of provider component (Count)
system.cpu.branchPred.stream_tage.providerTableDist::6       238644      4.48%     79.92% # the distribution of provider component (Count)
system.cpu.branchPred.stream_tage.providerTableDist::7       428283      8.04%     87.96% # the distribution of provider component (Count)
system.cpu.branchPred.stream_tage.providerTableDist::8       159978      3.00%     90.96% # the distribution of provider component (Count)
system.cpu.branchPred.stream_tage.providerTableDist::9       301835      5.66%     96.63% # the distribution of provider component (Count)
system.cpu.branchPred.stream_tage.providerTableDist::10        63218      1.19%     97.81% # the distribution of provider component (Count)
system.cpu.branchPred.stream_tage.providerTableDist::11        32551      0.61%     98.42% # the distribution of provider component (Count)
system.cpu.branchPred.stream_tage.providerTableDist::12        51020      0.96%     99.38% # the distribution of provider component (Count)
system.cpu.branchPred.stream_tage.providerTableDist::13        22064      0.41%     99.80% # the distribution of provider component (Count)
system.cpu.branchPred.stream_tage.providerTableDist::14         4892      0.09%     99.89% # the distribution of provider component (Count)
system.cpu.branchPred.stream_tage.providerTableDist::15         5986      0.11%    100.00% # the distribution of provider component (Count)
system.cpu.branchPred.stream_tage.providerTableDist::16            0      0.00%    100.00% # the distribution of provider component (Count)
system.cpu.branchPred.stream_tage.providerTableDist::17            0      0.00%    100.00% # the distribution of provider component (Count)
system.cpu.branchPred.stream_tage.providerTableDist::18            0      0.00%    100.00% # the distribution of provider component (Count)
system.cpu.branchPred.stream_tage.providerTableDist::19            0      0.00%    100.00% # the distribution of provider component (Count)
system.cpu.branchPred.stream_tage.providerTableDist::20            0      0.00%    100.00% # the distribution of provider component (Count)
system.cpu.branchPred.stream_tage.providerTableDist::21            0      0.00%    100.00% # the distribution of provider component (Count)
system.cpu.branchPred.stream_tage.providerTableDist::overflows            0      0.00%    100.00% # the distribution of provider component (Count)
system.cpu.branchPred.stream_tage.providerTableDist::min_value            0                       # the distribution of provider component (Count)
system.cpu.branchPred.stream_tage.providerTableDist::max_value           15                       # the distribution of provider component (Count)
system.cpu.branchPred.stream_tage.providerTableDist::total      5328893                       # the distribution of provider component (Count)
system.cpu.commit.commitSquashedInsts         6059169                       # The number of squashed insts skipped by commit (Count)
system.cpu.commit.commitNonSpecStalls              33                       # The number of times commit has been forced to stall to communicate backwards (Count)
system.cpu.commit.branchMispredicts             86021                       # The number of times a branch was mispredicted (Count)
system.cpu.commit.numCommittedDist::samples      9810305                       # Number of insts commited each cycle (Count)
system.cpu.commit.numCommittedDist::mean     1.019336                       # Number of insts commited each cycle (Count)
system.cpu.commit.numCommittedDist::stdev     2.481679                       # Number of insts commited each cycle (Count)
system.cpu.commit.numCommittedDist::underflows            0      0.00%      0.00% # Number of insts commited each cycle (Count)
system.cpu.commit.numCommittedDist::0         7841097     79.93%     79.93% # Number of insts commited each cycle (Count)
system.cpu.commit.numCommittedDist::1          560298      5.71%     85.64% # Number of insts commited each cycle (Count)
system.cpu.commit.numCommittedDist::2          150831      1.54%     87.18% # Number of insts commited each cycle (Count)
system.cpu.commit.numCommittedDist::3           89447      0.91%     88.09% # Number of insts commited each cycle (Count)
system.cpu.commit.numCommittedDist::4           46091      0.47%     88.56% # Number of insts commited each cycle (Count)
system.cpu.commit.numCommittedDist::5           69484      0.71%     89.27% # Number of insts commited each cycle (Count)
system.cpu.commit.numCommittedDist::6           35825      0.37%     89.63% # Number of insts commited each cycle (Count)
system.cpu.commit.numCommittedDist::7           14890      0.15%     89.78% # Number of insts commited each cycle (Count)
system.cpu.commit.numCommittedDist::8         1002342     10.22%    100.00% # Number of insts commited each cycle (Count)
system.cpu.commit.numCommittedDist::overflows            0      0.00%    100.00% # Number of insts commited each cycle (Count)
system.cpu.commit.numCommittedDist::min_value            0                       # Number of insts commited each cycle (Count)
system.cpu.commit.numCommittedDist::max_value            8                       # Number of insts commited each cycle (Count)
system.cpu.commit.numCommittedDist::total      9810305                       # Number of insts commited each cycle (Count)
system.cpu.commit.instsCommitted             10000001                       # Number of instructions committed (Count)
system.cpu.commit.opsCommitted               10000001                       # Number of ops (including micro ops) committed (Count)
system.cpu.commit.memRefs                     2082637                       # Number of memory references committed (Count)
system.cpu.commit.loads                       2082569                       # Number of loads committed (Count)
system.cpu.commit.amos                              0                       # Number of atomic instructions committed (Count)
system.cpu.commit.membars                           0                       # Number of memory barriers committed (Count)
system.cpu.commit.branches                    1583443                       # Number of branches committed (Count)
system.cpu.commit.vectorInstructions                0                       # Number of committed Vector instructions. (Count)
system.cpu.commit.floating                    4414282                       # Number of committed floating point instructions. (Count)
system.cpu.commit.integer                     8584584                       # Number of committed integer instructions. (Count)
system.cpu.commit.functionCalls                    11                       # Number of function calls committed. (Count)
system.cpu.commit.committedInstType_0::No_OpClass           32      0.00%      0.00% # Class of committed instruction (Count)
system.cpu.commit.committedInstType_0::IntAlu      5585470     55.85%     55.86% # Class of committed instruction (Count)
system.cpu.commit.committedInstType_0::IntMult            0      0.00%     55.86% # Class of committed instruction (Count)
system.cpu.commit.committedInstType_0::IntDiv            0      0.00%     55.86% # Class of committed instruction (Count)
system.cpu.commit.committedInstType_0::FloatAdd            0      0.00%     55.86% # Class of committed instruction (Count)
system.cpu.commit.committedInstType_0::FloatCmp       916446      9.16%     65.02% # Class of committed instruction (Count)
system.cpu.commit.committedInstType_0::FloatCvt            0      0.00%     65.02% # Class of committed instruction (Count)
system.cpu.commit.committedInstType_0::FloatMult       498970      4.99%     70.01% # Class of committed instruction (Count)
system.cpu.commit.committedInstType_0::FloatMultAcc            0      0.00%     70.01% # Class of committed instruction (Count)
system.cpu.commit.committedInstType_0::FloatDiv       249485      2.49%     72.50% # Class of committed instruction (Count)
system.cpu.commit.committedInstType_0::FloatMisc       666961      6.67%     79.17% # Class of committed instruction (Count)
system.cpu.commit.committedInstType_0::FloatSqrt            0      0.00%     79.17% # Class of committed instruction (Count)
system.cpu.commit.committedInstType_0::SimdAdd            0      0.00%     79.17% # Class of committed instruction (Count)
system.cpu.commit.committedInstType_0::SimdAddAcc            0      0.00%     79.17% # Class of committed instruction (Count)
system.cpu.commit.committedInstType_0::SimdAlu            0      0.00%     79.17% # Class of committed instruction (Count)
system.cpu.commit.committedInstType_0::SimdCmp            0      0.00%     79.17% # Class of committed instruction (Count)
system.cpu.commit.committedInstType_0::SimdCvt            0      0.00%     79.17% # Class of committed instruction (Count)
system.cpu.commit.committedInstType_0::SimdMisc            0      0.00%     79.17% # Class of committed instruction (Count)
system.cpu.commit.committedInstType_0::SimdMult            0      0.00%     79.17% # Class of committed instruction (Count)
system.cpu.commit.committedInstType_0::SimdMultAcc            0      0.00%     79.17% # Class of committed instruction (Count)
system.cpu.commit.committedInstType_0::SimdShift            0      0.00%     79.17% # Class of committed instruction (Count)
system.cpu.commit.committedInstType_0::SimdShiftAcc            0      0.00%     79.17% # Class of committed instruction (Count)
system.cpu.commit.committedInstType_0::SimdDiv            0      0.00%     79.17% # Class of committed instruction (Count)
system.cpu.commit.committedInstType_0::SimdSqrt            0      0.00%     79.17% # Class of committed instruction (Count)
system.cpu.commit.committedInstType_0::SimdFloatAdd            0      0.00%     79.17% # Class of committed instruction (Count)
system.cpu.commit.committedInstType_0::SimdFloatAlu            0      0.00%     79.17% # Class of committed instruction (Count)
system.cpu.commit.committedInstType_0::SimdFloatCmp            0      0.00%     79.17% # Class of committed instruction (Count)
system.cpu.commit.committedInstType_0::SimdFloatCvt            0      0.00%     79.17% # Class of committed instruction (Count)
system.cpu.commit.committedInstType_0::SimdFloatDiv            0      0.00%     79.17% # Class of committed instruction (Count)
system.cpu.commit.committedInstType_0::SimdFloatMisc            0      0.00%     79.17% # Class of committed instruction (Count)
system.cpu.commit.committedInstType_0::SimdFloatMult            0      0.00%     79.17% # Class of committed instruction (Count)
system.cpu.commit.committedInstType_0::SimdFloatMultAcc            0      0.00%     79.17% # Class of committed instruction (Count)
system.cpu.commit.committedInstType_0::SimdFloatSqrt            0      0.00%     79.17% # Class of committed instruction (Count)
system.cpu.commit.committedInstType_0::SimdReduceAdd            0      0.00%     79.17% # Class of committed instruction (Count)
system.cpu.commit.committedInstType_0::SimdReduceAlu            0      0.00%     79.17% # Class of committed instruction (Count)
system.cpu.commit.committedInstType_0::SimdReduceCmp            0      0.00%     79.17% # Class of committed instruction (Count)
system.cpu.commit.committedInstType_0::SimdFloatReduceAdd            0      0.00%     79.17% # Class of committed instruction (Count)
system.cpu.commit.committedInstType_0::SimdFloatReduceCmp            0      0.00%     79.17% # Class of committed instruction (Count)
system.cpu.commit.committedInstType_0::SimdAes            0      0.00%     79.17% # Class of committed instruction (Count)
system.cpu.commit.committedInstType_0::SimdAesMix            0      0.00%     79.17% # Class of committed instruction (Count)
system.cpu.commit.committedInstType_0::SimdSha1Hash            0      0.00%     79.17% # Class of committed instruction (Count)
system.cpu.commit.committedInstType_0::SimdSha1Hash2            0      0.00%     79.17% # Class of committed instruction (Count)
system.cpu.commit.committedInstType_0::SimdSha256Hash            0      0.00%     79.17% # Class of committed instruction (Count)
system.cpu.commit.committedInstType_0::SimdSha256Hash2            0      0.00%     79.17% # Class of committed instruction (Count)
system.cpu.commit.committedInstType_0::SimdShaSigma2            0      0.00%     79.17% # Class of committed instruction (Count)
system.cpu.commit.committedInstType_0::SimdShaSigma3            0      0.00%     79.17% # Class of committed instruction (Count)
system.cpu.commit.committedInstType_0::SimdPredAlu            0      0.00%     79.17% # Class of committed instruction (Count)
system.cpu.commit.committedInstType_0::MemRead          160      0.00%     79.18% # Class of committed instruction (Count)
system.cpu.commit.committedInstType_0::MemWrite           57      0.00%     79.18% # Class of committed instruction (Count)
system.cpu.commit.committedInstType_0::FloatMemRead      2082409     20.82%    100.00% # Class of committed instruction (Count)
system.cpu.commit.committedInstType_0::FloatMemWrite           11      0.00%    100.00% # Class of committed instruction (Count)
system.cpu.commit.committedInstType_0::IprAccess            0      0.00%    100.00% # Class of committed instruction (Count)
system.cpu.commit.committedInstType_0::InstPrefetch            0      0.00%    100.00% # Class of committed instruction (Count)
system.cpu.commit.committedInstType_0::total     10000001                       # Class of committed instruction (Count)
system.cpu.commit.commitEligibleSamples       1002342                       # number cycles where commit BW limit reached (Cycle)
system.cpu.dcache.demandHits::cpu.data        2153025                       # number of demand (read+write) hits (Count)
system.cpu.dcache.demandHits::total           2153025                       # number of demand (read+write) hits (Count)
system.cpu.dcache.overallHits::cpu.data       2153025                       # number of overall hits (Count)
system.cpu.dcache.overallHits::total          2153025                       # number of overall hits (Count)
system.cpu.dcache.demandMisses::cpu.data      1128583                       # number of demand (read+write) misses (Count)
system.cpu.dcache.demandMisses::total         1128583                       # number of demand (read+write) misses (Count)
system.cpu.dcache.overallMisses::cpu.data      1128583                       # number of overall misses (Count)
system.cpu.dcache.overallMisses::total        1128583                       # number of overall misses (Count)
system.cpu.dcache.demandMissLatency::cpu.data  53162317000                       # number of demand (read+write) miss ticks (Tick)
system.cpu.dcache.demandMissLatency::total  53162317000                       # number of demand (read+write) miss ticks (Tick)
system.cpu.dcache.overallMissLatency::cpu.data  53162317000                       # number of overall miss ticks (Tick)
system.cpu.dcache.overallMissLatency::total  53162317000                       # number of overall miss ticks (Tick)
system.cpu.dcache.demandAccesses::cpu.data      3281608                       # number of demand (read+write) accesses (Count)
system.cpu.dcache.demandAccesses::total       3281608                       # number of demand (read+write) accesses (Count)
system.cpu.dcache.overallAccesses::cpu.data      3281608                       # number of overall (read+write) accesses (Count)
system.cpu.dcache.overallAccesses::total      3281608                       # number of overall (read+write) accesses (Count)
system.cpu.dcache.demandMissRate::cpu.data     0.343912                       # miss rate for demand accesses (Ratio)
system.cpu.dcache.demandMissRate::total      0.343912                       # miss rate for demand accesses (Ratio)
system.cpu.dcache.overallMissRate::cpu.data     0.343912                       # miss rate for overall accesses (Ratio)
system.cpu.dcache.overallMissRate::total     0.343912                       # miss rate for overall accesses (Ratio)
system.cpu.dcache.demandAvgMissLatency::cpu.data 47105.367527                       # average overall miss latency in ticks ((Tick/Count))
system.cpu.dcache.demandAvgMissLatency::total 47105.367527                       # average overall miss latency in ticks ((Tick/Count))
system.cpu.dcache.overallAvgMissLatency::cpu.data 47105.367527                       # average overall miss latency ((Tick/Count))
system.cpu.dcache.overallAvgMissLatency::total 47105.367527                       # average overall miss latency ((Tick/Count))
system.cpu.dcache.blockedCycles::no_mshrs            0                       # number of cycles access was blocked (Cycle)
system.cpu.dcache.blockedCycles::no_targets            0                       # number of cycles access was blocked (Cycle)
system.cpu.dcache.blockedCauses::no_mshrs            0                       # number of times access was blocked (Count)
system.cpu.dcache.blockedCauses::no_targets            0                       # number of times access was blocked (Count)
system.cpu.dcache.avgBlocked::no_mshrs            nan                       # average number of cycles each access was blocked ((Cycle/Count))
system.cpu.dcache.avgBlocked::no_targets          nan                       # average number of cycles each access was blocked ((Cycle/Count))
system.cpu.dcache.writebacks::writebacks            4                       # number of writebacks (Count)
system.cpu.dcache.writebacks::total                 4                       # number of writebacks (Count)
system.cpu.dcache.demandMshrHits::cpu.data       927738                       # number of demand (read+write) MSHR hits (Count)
system.cpu.dcache.demandMshrHits::total        927738                       # number of demand (read+write) MSHR hits (Count)
system.cpu.dcache.overallMshrHits::cpu.data       927738                       # number of overall MSHR hits (Count)
system.cpu.dcache.overallMshrHits::total       927738                       # number of overall MSHR hits (Count)
system.cpu.dcache.demandMshrMisses::cpu.data       200845                       # number of demand (read+write) MSHR misses (Count)
system.cpu.dcache.demandMshrMisses::total       200845                       # number of demand (read+write) MSHR misses (Count)
system.cpu.dcache.overallMshrMisses::cpu.data       200845                       # number of overall MSHR misses (Count)
system.cpu.dcache.overallMshrMisses::total       200845                       # number of overall MSHR misses (Count)
system.cpu.dcache.overallMshrUncacheable::cpu.data            2                       # number of overall MSHR uncacheable misses (Count)
system.cpu.dcache.overallMshrUncacheable::total            2                       # number of overall MSHR uncacheable misses (Count)
system.cpu.dcache.demandMshrMissLatency::cpu.data  12215034500                       # number of demand (read+write) MSHR miss ticks (Tick)
system.cpu.dcache.demandMshrMissLatency::total  12215034500                       # number of demand (read+write) MSHR miss ticks (Tick)
system.cpu.dcache.overallMshrMissLatency::cpu.data  12215034500                       # number of overall MSHR miss ticks (Tick)
system.cpu.dcache.overallMshrMissLatency::total  12215034500                       # number of overall MSHR miss ticks (Tick)
system.cpu.dcache.demandMshrMissRate::cpu.data     0.061203                       # mshr miss ratio for demand accesses (Ratio)
system.cpu.dcache.demandMshrMissRate::total     0.061203                       # mshr miss ratio for demand accesses (Ratio)
system.cpu.dcache.overallMshrMissRate::cpu.data     0.061203                       # mshr miss ratio for overall accesses (Ratio)
system.cpu.dcache.overallMshrMissRate::total     0.061203                       # mshr miss ratio for overall accesses (Ratio)
system.cpu.dcache.demandAvgMshrMissLatency::cpu.data 60818.215539                       # average overall mshr miss latency ((Tick/Count))
system.cpu.dcache.demandAvgMshrMissLatency::total 60818.215539                       # average overall mshr miss latency ((Tick/Count))
system.cpu.dcache.overallAvgMshrMissLatency::cpu.data 60818.215539                       # average overall mshr miss latency ((Tick/Count))
system.cpu.dcache.overallAvgMshrMissLatency::total 60818.215539                       # average overall mshr miss latency ((Tick/Count))
system.cpu.dcache.replacements                 198796                       # number of replacements (Count)
system.cpu.dcache.ReadReq.hits::cpu.data      2152962                       # number of ReadReq hits (Count)
system.cpu.dcache.ReadReq.hits::total         2152962                       # number of ReadReq hits (Count)
system.cpu.dcache.ReadReq.misses::cpu.data      1128580                       # number of ReadReq misses (Count)
system.cpu.dcache.ReadReq.misses::total       1128580                       # number of ReadReq misses (Count)
system.cpu.dcache.ReadReq.missLatency::cpu.data  53162305000                       # number of ReadReq miss ticks (Tick)
system.cpu.dcache.ReadReq.missLatency::total  53162305000                       # number of ReadReq miss ticks (Tick)
system.cpu.dcache.ReadReq.accesses::cpu.data      3281542                       # number of ReadReq accesses(hits+misses) (Count)
system.cpu.dcache.ReadReq.accesses::total      3281542                       # number of ReadReq accesses(hits+misses) (Count)
system.cpu.dcache.ReadReq.missRate::cpu.data     0.343918                       # miss rate for ReadReq accesses (Ratio)
system.cpu.dcache.ReadReq.missRate::total     0.343918                       # miss rate for ReadReq accesses (Ratio)
system.cpu.dcache.ReadReq.avgMissLatency::cpu.data 47105.482110                       # average ReadReq miss latency ((Tick/Count))
system.cpu.dcache.ReadReq.avgMissLatency::total 47105.482110                       # average ReadReq miss latency ((Tick/Count))
system.cpu.dcache.ReadReq.mshrHits::cpu.data       927738                       # number of ReadReq MSHR hits (Count)
system.cpu.dcache.ReadReq.mshrHits::total       927738                       # number of ReadReq MSHR hits (Count)
system.cpu.dcache.ReadReq.mshrMisses::cpu.data       200842                       # number of ReadReq MSHR misses (Count)
system.cpu.dcache.ReadReq.mshrMisses::total       200842                       # number of ReadReq MSHR misses (Count)
system.cpu.dcache.ReadReq.mshrMissLatency::cpu.data  12215024000                       # number of ReadReq MSHR miss ticks (Tick)
system.cpu.dcache.ReadReq.mshrMissLatency::total  12215024000                       # number of ReadReq MSHR miss ticks (Tick)
system.cpu.dcache.ReadReq.mshrMissRate::cpu.data     0.061204                       # mshr miss rate for ReadReq accesses (Ratio)
system.cpu.dcache.ReadReq.mshrMissRate::total     0.061204                       # mshr miss rate for ReadReq accesses (Ratio)
system.cpu.dcache.ReadReq.avgMshrMissLatency::cpu.data 60819.071708                       # average ReadReq mshr miss latency ((Tick/Count))
system.cpu.dcache.ReadReq.avgMshrMissLatency::total 60819.071708                       # average ReadReq mshr miss latency ((Tick/Count))
system.cpu.dcache.WriteReq.hits::cpu.data           63                       # number of WriteReq hits (Count)
system.cpu.dcache.WriteReq.hits::total             63                       # number of WriteReq hits (Count)
system.cpu.dcache.WriteReq.misses::cpu.data            3                       # number of WriteReq misses (Count)
system.cpu.dcache.WriteReq.misses::total            3                       # number of WriteReq misses (Count)
system.cpu.dcache.WriteReq.missLatency::cpu.data        12000                       # number of WriteReq miss ticks (Tick)
system.cpu.dcache.WriteReq.missLatency::total        12000                       # number of WriteReq miss ticks (Tick)
system.cpu.dcache.WriteReq.accesses::cpu.data           66                       # number of WriteReq accesses(hits+misses) (Count)
system.cpu.dcache.WriteReq.accesses::total           66                       # number of WriteReq accesses(hits+misses) (Count)
system.cpu.dcache.WriteReq.missRate::cpu.data     0.045455                       # miss rate for WriteReq accesses (Ratio)
system.cpu.dcache.WriteReq.missRate::total     0.045455                       # miss rate for WriteReq accesses (Ratio)
system.cpu.dcache.WriteReq.avgMissLatency::cpu.data         4000                       # average WriteReq miss latency ((Tick/Count))
system.cpu.dcache.WriteReq.avgMissLatency::total         4000                       # average WriteReq miss latency ((Tick/Count))
system.cpu.dcache.WriteReq.mshrMisses::cpu.data            3                       # number of WriteReq MSHR misses (Count)
system.cpu.dcache.WriteReq.mshrMisses::total            3                       # number of WriteReq MSHR misses (Count)
system.cpu.dcache.WriteReq.mshrUncacheable::cpu.data            2                       # number of WriteReq MSHR uncacheable (Count)
system.cpu.dcache.WriteReq.mshrUncacheable::total            2                       # number of WriteReq MSHR uncacheable (Count)
system.cpu.dcache.WriteReq.mshrMissLatency::cpu.data        10500                       # number of WriteReq MSHR miss ticks (Tick)
system.cpu.dcache.WriteReq.mshrMissLatency::total        10500                       # number of WriteReq MSHR miss ticks (Tick)
system.cpu.dcache.WriteReq.mshrMissRate::cpu.data     0.045455                       # mshr miss rate for WriteReq accesses (Ratio)
system.cpu.dcache.WriteReq.mshrMissRate::total     0.045455                       # mshr miss rate for WriteReq accesses (Ratio)
system.cpu.dcache.WriteReq.avgMshrMissLatency::cpu.data         3500                       # average WriteReq mshr miss latency ((Tick/Count))
system.cpu.dcache.WriteReq.avgMshrMissLatency::total         3500                       # average WriteReq mshr miss latency ((Tick/Count))
system.cpu.dcache.power_state.pwrStateResidencyTicks::UNDEFINED   5301943000                       # Cumulative time (in ticks) in various power states (Tick)
system.cpu.dcache.tags.tagsInUse          2036.238203                       # Average ticks per tags in use ((Tick/Count))
system.cpu.dcache.tags.totalRefs               873257                       # Total number of references to valid blocks. (Count)
system.cpu.dcache.tags.sampledRefs             198796                       # Sample count of references to valid blocks. (Count)
system.cpu.dcache.tags.avgRefs               4.392729                       # Average number of references to valid blocks. ((Count/Count))
system.cpu.dcache.tags.warmupTick              153500                       # The tick when the warmup percentage was hit. (Tick)
system.cpu.dcache.tags.occupancies::cpu.data  2036.238203                       # Average occupied blocks per tick, per requestor ((Count/Tick))
system.cpu.dcache.tags.avgOccs::cpu.data     0.994257                       # Average percentage of cache occupancy ((Ratio/Tick))
system.cpu.dcache.tags.avgOccs::total        0.994257                       # Average percentage of cache occupancy ((Ratio/Tick))
system.cpu.dcache.tags.occupanciesTaskId::1024         2048                       # Occupied blocks per task id (Count)
system.cpu.dcache.tags.ageTaskId_1024::0          374                       # Occupied blocks per task id, per block age (Count)
system.cpu.dcache.tags.ageTaskId_1024::1         1672                       # Occupied blocks per task id, per block age (Count)
system.cpu.dcache.tags.ageTaskId_1024::3            2                       # Occupied blocks per task id, per block age (Count)
system.cpu.dcache.tags.ratioOccsTaskId::1024            1                       # Ratio of occupied blocks and all blocks, per task id (Ratio)
system.cpu.dcache.tags.tagAccesses           26453708                       # Number of tag accesses (Count)
system.cpu.dcache.tags.dataAccesses          26453708                       # Number of data accesses (Count)
system.cpu.dcache.tags.power_state.pwrStateResidencyTicks::UNDEFINED   5301943000                       # Cumulative time (in ticks) in various power states (Tick)
system.cpu.decode.idleCycles                   418258                       # Number of cycles decode is idle (Cycle)
system.cpu.decode.blockedCycles               7345050                       # Number of cycles decode is blocked (Cycle)
system.cpu.decode.runCycles                   2339433                       # Number of cycles decode is running (Cycle)
system.cpu.decode.unblockCycles                414561                       # Number of cycles decode is unblocking (Cycle)
system.cpu.decode.squashCycles                  86030                       # Number of cycles decode is squashing (Cycle)
system.cpu.decode.branchResolved              1124142                       # Number of times decode resolved a branch (Count)
system.cpu.decode.branchMispred                    27                       # Number of times decode detected a branch misprediction (Count)
system.cpu.decode.decodedInsts               17011339                       # Number of instructions handled by decode (Count)
system.cpu.decode.squashedInsts                   150                       # Number of squashed instructions handled by decode (Count)
system.cpu.dtb_walker_cache.demandHits::cpu.mmu.dtb.walker        40634                       # number of demand (read+write) hits (Count)
system.cpu.dtb_walker_cache.demandHits::total        40634                       # number of demand (read+write) hits (Count)
system.cpu.dtb_walker_cache.overallHits::cpu.mmu.dtb.walker        40634                       # number of overall hits (Count)
system.cpu.dtb_walker_cache.overallHits::total        40634                       # number of overall hits (Count)
system.cpu.dtb_walker_cache.demandMisses::cpu.mmu.dtb.walker         1978                       # number of demand (read+write) misses (Count)
system.cpu.dtb_walker_cache.demandMisses::total         1978                       # number of demand (read+write) misses (Count)
system.cpu.dtb_walker_cache.overallMisses::cpu.mmu.dtb.walker         1978                       # number of overall misses (Count)
system.cpu.dtb_walker_cache.overallMisses::total         1978                       # number of overall misses (Count)
system.cpu.dtb_walker_cache.demandMissLatency::cpu.mmu.dtb.walker    137964000                       # number of demand (read+write) miss ticks (Tick)
system.cpu.dtb_walker_cache.demandMissLatency::total    137964000                       # number of demand (read+write) miss ticks (Tick)
system.cpu.dtb_walker_cache.overallMissLatency::cpu.mmu.dtb.walker    137964000                       # number of overall miss ticks (Tick)
system.cpu.dtb_walker_cache.overallMissLatency::total    137964000                       # number of overall miss ticks (Tick)
system.cpu.dtb_walker_cache.demandAccesses::cpu.mmu.dtb.walker        42612                       # number of demand (read+write) accesses (Count)
system.cpu.dtb_walker_cache.demandAccesses::total        42612                       # number of demand (read+write) accesses (Count)
system.cpu.dtb_walker_cache.overallAccesses::cpu.mmu.dtb.walker        42612                       # number of overall (read+write) accesses (Count)
system.cpu.dtb_walker_cache.overallAccesses::total        42612                       # number of overall (read+write) accesses (Count)
system.cpu.dtb_walker_cache.demandMissRate::cpu.mmu.dtb.walker     0.046419                       # miss rate for demand accesses (Ratio)
system.cpu.dtb_walker_cache.demandMissRate::total     0.046419                       # miss rate for demand accesses (Ratio)
system.cpu.dtb_walker_cache.overallMissRate::cpu.mmu.dtb.walker     0.046419                       # miss rate for overall accesses (Ratio)
system.cpu.dtb_walker_cache.overallMissRate::total     0.046419                       # miss rate for overall accesses (Ratio)
system.cpu.dtb_walker_cache.demandAvgMissLatency::cpu.mmu.dtb.walker 69749.241658                       # average overall miss latency in ticks ((Tick/Count))
system.cpu.dtb_walker_cache.demandAvgMissLatency::total 69749.241658                       # average overall miss latency in ticks ((Tick/Count))
system.cpu.dtb_walker_cache.overallAvgMissLatency::cpu.mmu.dtb.walker 69749.241658                       # average overall miss latency ((Tick/Count))
system.cpu.dtb_walker_cache.overallAvgMissLatency::total 69749.241658                       # average overall miss latency ((Tick/Count))
system.cpu.dtb_walker_cache.blockedCycles::no_mshrs            0                       # number of cycles access was blocked (Cycle)
system.cpu.dtb_walker_cache.blockedCycles::no_targets            0                       # number of cycles access was blocked (Cycle)
system.cpu.dtb_walker_cache.blockedCauses::no_mshrs            0                       # number of times access was blocked (Count)
system.cpu.dtb_walker_cache.blockedCauses::no_targets            0                       # number of times access was blocked (Count)
system.cpu.dtb_walker_cache.avgBlocked::no_mshrs          nan                       # average number of cycles each access was blocked ((Cycle/Count))
system.cpu.dtb_walker_cache.avgBlocked::no_targets          nan                       # average number of cycles each access was blocked ((Cycle/Count))
system.cpu.dtb_walker_cache.demandMshrMisses::cpu.mmu.dtb.walker         1978                       # number of demand (read+write) MSHR misses (Count)
system.cpu.dtb_walker_cache.demandMshrMisses::total         1978                       # number of demand (read+write) MSHR misses (Count)
system.cpu.dtb_walker_cache.overallMshrMisses::cpu.mmu.dtb.walker         1978                       # number of overall MSHR misses (Count)
system.cpu.dtb_walker_cache.overallMshrMisses::total         1978                       # number of overall MSHR misses (Count)
system.cpu.dtb_walker_cache.demandMshrMissLatency::cpu.mmu.dtb.walker    135986000                       # number of demand (read+write) MSHR miss ticks (Tick)
system.cpu.dtb_walker_cache.demandMshrMissLatency::total    135986000                       # number of demand (read+write) MSHR miss ticks (Tick)
system.cpu.dtb_walker_cache.overallMshrMissLatency::cpu.mmu.dtb.walker    135986000                       # number of overall MSHR miss ticks (Tick)
system.cpu.dtb_walker_cache.overallMshrMissLatency::total    135986000                       # number of overall MSHR miss ticks (Tick)
system.cpu.dtb_walker_cache.demandMshrMissRate::cpu.mmu.dtb.walker     0.046419                       # mshr miss ratio for demand accesses (Ratio)
system.cpu.dtb_walker_cache.demandMshrMissRate::total     0.046419                       # mshr miss ratio for demand accesses (Ratio)
system.cpu.dtb_walker_cache.overallMshrMissRate::cpu.mmu.dtb.walker     0.046419                       # mshr miss ratio for overall accesses (Ratio)
system.cpu.dtb_walker_cache.overallMshrMissRate::total     0.046419                       # mshr miss ratio for overall accesses (Ratio)
system.cpu.dtb_walker_cache.demandAvgMshrMissLatency::cpu.mmu.dtb.walker 68749.241658                       # average overall mshr miss latency ((Tick/Count))
system.cpu.dtb_walker_cache.demandAvgMshrMissLatency::total 68749.241658                       # average overall mshr miss latency ((Tick/Count))
system.cpu.dtb_walker_cache.overallAvgMshrMissLatency::cpu.mmu.dtb.walker 68749.241658                       # average overall mshr miss latency ((Tick/Count))
system.cpu.dtb_walker_cache.overallAvgMshrMissLatency::total 68749.241658                       # average overall mshr miss latency ((Tick/Count))
system.cpu.dtb_walker_cache.replacements         1962                       # number of replacements (Count)
system.cpu.dtb_walker_cache.ReadReq.hits::cpu.mmu.dtb.walker        40634                       # number of ReadReq hits (Count)
system.cpu.dtb_walker_cache.ReadReq.hits::total        40634                       # number of ReadReq hits (Count)
system.cpu.dtb_walker_cache.ReadReq.misses::cpu.mmu.dtb.walker         1978                       # number of ReadReq misses (Count)
system.cpu.dtb_walker_cache.ReadReq.misses::total         1978                       # number of ReadReq misses (Count)
system.cpu.dtb_walker_cache.ReadReq.missLatency::cpu.mmu.dtb.walker    137964000                       # number of ReadReq miss ticks (Tick)
system.cpu.dtb_walker_cache.ReadReq.missLatency::total    137964000                       # number of ReadReq miss ticks (Tick)
system.cpu.dtb_walker_cache.ReadReq.accesses::cpu.mmu.dtb.walker        42612                       # number of ReadReq accesses(hits+misses) (Count)
system.cpu.dtb_walker_cache.ReadReq.accesses::total        42612                       # number of ReadReq accesses(hits+misses) (Count)
system.cpu.dtb_walker_cache.ReadReq.missRate::cpu.mmu.dtb.walker     0.046419                       # miss rate for ReadReq accesses (Ratio)
system.cpu.dtb_walker_cache.ReadReq.missRate::total     0.046419                       # miss rate for ReadReq accesses (Ratio)
system.cpu.dtb_walker_cache.ReadReq.avgMissLatency::cpu.mmu.dtb.walker 69749.241658                       # average ReadReq miss latency ((Tick/Count))
system.cpu.dtb_walker_cache.ReadReq.avgMissLatency::total 69749.241658                       # average ReadReq miss latency ((Tick/Count))
system.cpu.dtb_walker_cache.ReadReq.mshrMisses::cpu.mmu.dtb.walker         1978                       # number of ReadReq MSHR misses (Count)
system.cpu.dtb_walker_cache.ReadReq.mshrMisses::total         1978                       # number of ReadReq MSHR misses (Count)
system.cpu.dtb_walker_cache.ReadReq.mshrMissLatency::cpu.mmu.dtb.walker    135986000                       # number of ReadReq MSHR miss ticks (Tick)
system.cpu.dtb_walker_cache.ReadReq.mshrMissLatency::total    135986000                       # number of ReadReq MSHR miss ticks (Tick)
system.cpu.dtb_walker_cache.ReadReq.mshrMissRate::cpu.mmu.dtb.walker     0.046419                       # mshr miss rate for ReadReq accesses (Ratio)
system.cpu.dtb_walker_cache.ReadReq.mshrMissRate::total     0.046419                       # mshr miss rate for ReadReq accesses (Ratio)
system.cpu.dtb_walker_cache.ReadReq.avgMshrMissLatency::cpu.mmu.dtb.walker 68749.241658                       # average ReadReq mshr miss latency ((Tick/Count))
system.cpu.dtb_walker_cache.ReadReq.avgMshrMissLatency::total 68749.241658                       # average ReadReq mshr miss latency ((Tick/Count))
system.cpu.dtb_walker_cache.power_state.pwrStateResidencyTicks::UNDEFINED   5301943000                       # Cumulative time (in ticks) in various power states (Tick)
system.cpu.dtb_walker_cache.tags.tagsInUse    15.898660                       # Average ticks per tags in use ((Tick/Count))
system.cpu.dtb_walker_cache.tags.totalRefs        28087                       # Total number of references to valid blocks. (Count)
system.cpu.dtb_walker_cache.tags.sampledRefs         1962                       # Sample count of references to valid blocks. (Count)
system.cpu.dtb_walker_cache.tags.avgRefs    14.315494                       # Average number of references to valid blocks. ((Count/Count))
system.cpu.dtb_walker_cache.tags.warmupTick      1416500                       # The tick when the warmup percentage was hit. (Tick)
system.cpu.dtb_walker_cache.tags.occupancies::cpu.mmu.dtb.walker    15.898660                       # Average occupied blocks per tick, per requestor ((Count/Tick))
system.cpu.dtb_walker_cache.tags.avgOccs::cpu.mmu.dtb.walker     0.993666                       # Average percentage of cache occupancy ((Ratio/Tick))
system.cpu.dtb_walker_cache.tags.avgOccs::total     0.993666                       # Average percentage of cache occupancy ((Ratio/Tick))
system.cpu.dtb_walker_cache.tags.occupanciesTaskId::1024           16                       # Occupied blocks per task id (Count)
system.cpu.dtb_walker_cache.tags.ageTaskId_1024::0            3                       # Occupied blocks per task id, per block age (Count)
system.cpu.dtb_walker_cache.tags.ageTaskId_1024::1            6                       # Occupied blocks per task id, per block age (Count)
system.cpu.dtb_walker_cache.tags.ageTaskId_1024::2            6                       # Occupied blocks per task id, per block age (Count)
system.cpu.dtb_walker_cache.tags.ageTaskId_1024::3            1                       # Occupied blocks per task id, per block age (Count)
system.cpu.dtb_walker_cache.tags.ratioOccsTaskId::1024            1                       # Ratio of occupied blocks and all blocks, per task id (Ratio)
system.cpu.dtb_walker_cache.tags.tagAccesses        87202                       # Number of tag accesses (Count)
system.cpu.dtb_walker_cache.tags.dataAccesses        87202                       # Number of data accesses (Count)
system.cpu.dtb_walker_cache.tags.power_state.pwrStateResidencyTicks::UNDEFINED   5301943000                       # Cumulative time (in ticks) in various power states (Tick)
system.cpu.fetch.icacheStallCycles               2351                       # Number of cycles fetch is stalled on an Icache miss (Cycle)
system.cpu.fetch.insts                       18753868                       # Number of instructions fetch has processed (Count)
system.cpu.fetch.branches                     1234259                       # Number of branches that fetch encountered (Count)
system.cpu.fetch.predictedBranches            1234259                       # Number of branches that fetch has predicted taken (Count)
system.cpu.fetch.cycles                      10514330                       # Number of cycles fetch has run and was not squashing or blocked (Cycle)
system.cpu.fetch.squashCycles                  172110                       # Number of cycles fetch has spent squashing (Cycle)
system.cpu.fetch.tlbCycles                        493                       # Number of cycles fetch has spent waiting for tlb (Cycle)
system.cpu.fetch.icacheWaitRetryStallCycles          103                       # Number of stall cycles due to full MSHR (Cycle)
system.cpu.fetch.cacheLines                   2528358                       # Number of cache lines fetched (Count)
system.cpu.fetch.icacheSquashes                    13                       # Number of outstanding Icache misses that were squashed (Count)
system.cpu.fetch.tlbSquashes                        2                       # Number of outstanding ITLB misses that were squashed (Count)
system.cpu.fetch.nisnDist::samples           10603332                       # Number of instructions fetched each cycle (Total) (Count)
system.cpu.fetch.nisnDist::mean              1.768677                       # Number of instructions fetched each cycle (Total) (Count)
system.cpu.fetch.nisnDist::stdev             2.710878                       # Number of instructions fetched each cycle (Total) (Count)
system.cpu.fetch.nisnDist::underflows               0      0.00%      0.00% # Number of instructions fetched each cycle (Total) (Count)
system.cpu.fetch.nisnDist::0                  6299238     59.41%     59.41% # Number of instructions fetched each cycle (Total) (Count)
system.cpu.fetch.nisnDist::1                  1269547     11.97%     71.38% # Number of instructions fetched each cycle (Total) (Count)
system.cpu.fetch.nisnDist::2                       30      0.00%     71.38% # Number of instructions fetched each cycle (Total) (Count)
system.cpu.fetch.nisnDist::3                   100631      0.95%     72.33% # Number of instructions fetched each cycle (Total) (Count)
system.cpu.fetch.nisnDist::4                  1289787     12.16%     84.49% # Number of instructions fetched each cycle (Total) (Count)
system.cpu.fetch.nisnDist::5                      190      0.00%     84.50% # Number of instructions fetched each cycle (Total) (Count)
system.cpu.fetch.nisnDist::6                       30      0.00%     84.50% # Number of instructions fetched each cycle (Total) (Count)
system.cpu.fetch.nisnDist::7                  1128942     10.65%     95.14% # Number of instructions fetched each cycle (Total) (Count)
system.cpu.fetch.nisnDist::8                   514937      4.86%    100.00% # Number of instructions fetched each cycle (Total) (Count)
system.cpu.fetch.nisnDist::overflows                0      0.00%    100.00% # Number of instructions fetched each cycle (Total) (Count)
system.cpu.fetch.nisnDist::min_value                0                       # Number of instructions fetched each cycle (Total) (Count)
system.cpu.fetch.nisnDist::max_value                8                       # Number of instructions fetched each cycle (Total) (Count)
system.cpu.fetch.nisnDist::total             10603332                       # Number of instructions fetched each cycle (Total) (Count)
system.cpu.fetch.branchRate                  0.116397                       # Number of branch fetches per cycle (Ratio)
system.cpu.fetch.rate                        1.768584                       # Number of inst fetches per cycle ((Count/Cycle))
system.cpu.icache.demandHits::cpu.inst        2528322                       # number of demand (read+write) hits (Count)
system.cpu.icache.demandHits::total           2528322                       # number of demand (read+write) hits (Count)
system.cpu.icache.overallHits::cpu.inst       2528322                       # number of overall hits (Count)
system.cpu.icache.overallHits::total          2528322                       # number of overall hits (Count)
system.cpu.icache.demandMisses::cpu.inst           36                       # number of demand (read+write) misses (Count)
system.cpu.icache.demandMisses::total              36                       # number of demand (read+write) misses (Count)
system.cpu.icache.overallMisses::cpu.inst           36                       # number of overall misses (Count)
system.cpu.icache.overallMisses::total             36                       # number of overall misses (Count)
system.cpu.icache.demandMissLatency::cpu.inst      2045499                       # number of demand (read+write) miss ticks (Tick)
system.cpu.icache.demandMissLatency::total      2045499                       # number of demand (read+write) miss ticks (Tick)
system.cpu.icache.overallMissLatency::cpu.inst      2045499                       # number of overall miss ticks (Tick)
system.cpu.icache.overallMissLatency::total      2045499                       # number of overall miss ticks (Tick)
system.cpu.icache.demandAccesses::cpu.inst      2528358                       # number of demand (read+write) accesses (Count)
system.cpu.icache.demandAccesses::total       2528358                       # number of demand (read+write) accesses (Count)
system.cpu.icache.overallAccesses::cpu.inst      2528358                       # number of overall (read+write) accesses (Count)
system.cpu.icache.overallAccesses::total      2528358                       # number of overall (read+write) accesses (Count)
system.cpu.icache.demandMissRate::cpu.inst     0.000014                       # miss rate for demand accesses (Ratio)
system.cpu.icache.demandMissRate::total      0.000014                       # miss rate for demand accesses (Ratio)
system.cpu.icache.overallMissRate::cpu.inst     0.000014                       # miss rate for overall accesses (Ratio)
system.cpu.icache.overallMissRate::total     0.000014                       # miss rate for overall accesses (Ratio)
system.cpu.icache.demandAvgMissLatency::cpu.inst 56819.416667                       # average overall miss latency in ticks ((Tick/Count))
system.cpu.icache.demandAvgMissLatency::total 56819.416667                       # average overall miss latency in ticks ((Tick/Count))
system.cpu.icache.overallAvgMissLatency::cpu.inst 56819.416667                       # average overall miss latency ((Tick/Count))
system.cpu.icache.overallAvgMissLatency::total 56819.416667                       # average overall miss latency ((Tick/Count))
system.cpu.icache.blockedCycles::no_mshrs          415                       # number of cycles access was blocked (Cycle)
system.cpu.icache.blockedCycles::no_targets            0                       # number of cycles access was blocked (Cycle)
system.cpu.icache.blockedCauses::no_mshrs            6                       # number of times access was blocked (Count)
system.cpu.icache.blockedCauses::no_targets            0                       # number of times access was blocked (Count)
system.cpu.icache.avgBlocked::no_mshrs      69.166667                       # average number of cycles each access was blocked ((Cycle/Count))
system.cpu.icache.avgBlocked::no_targets          nan                       # average number of cycles each access was blocked ((Cycle/Count))
system.cpu.icache.demandMshrHits::cpu.inst            3                       # number of demand (read+write) MSHR hits (Count)
system.cpu.icache.demandMshrHits::total             3                       # number of demand (read+write) MSHR hits (Count)
system.cpu.icache.overallMshrHits::cpu.inst            3                       # number of overall MSHR hits (Count)
system.cpu.icache.overallMshrHits::total            3                       # number of overall MSHR hits (Count)
system.cpu.icache.demandMshrMisses::cpu.inst           33                       # number of demand (read+write) MSHR misses (Count)
system.cpu.icache.demandMshrMisses::total           33                       # number of demand (read+write) MSHR misses (Count)
system.cpu.icache.overallMshrMisses::cpu.inst           33                       # number of overall MSHR misses (Count)
system.cpu.icache.overallMshrMisses::total           33                       # number of overall MSHR misses (Count)
system.cpu.icache.demandMshrMissLatency::cpu.inst      1895499                       # number of demand (read+write) MSHR miss ticks (Tick)
system.cpu.icache.demandMshrMissLatency::total      1895499                       # number of demand (read+write) MSHR miss ticks (Tick)
system.cpu.icache.overallMshrMissLatency::cpu.inst      1895499                       # number of overall MSHR miss ticks (Tick)
[...]
system.mem_ctrls.dram.bytesPerActivate::samples       161568                       # Bytes accessed per row activation (Byte)
system.mem_ctrls.dram.bytesPerActivate::mean   204.411171                       # Bytes accessed per row activation (Byte)
system.mem_ctrls.dram.bytesPerActivate::gmean   117.683300                       # Bytes accessed per row activation (Byte)
system.mem_ctrls.dram.bytesPerActivate::stdev   279.770772                       # Bytes accessed per row activation (Byte)
system.mem_ctrls.dram.bytesPerActivate::0-127        96831     59.93%     59.93% # Bytes accessed per row activation (Byte)
system.mem_ctrls.dram.bytesPerActivate::128-255        32270     19.97%     79.91% # Bytes accessed per row activation (Byte)
system.mem_ctrls.dram.bytesPerActivate::256-383         7791      4.82%     84.73% # Bytes accessed per row activation (Byte)
system.mem_ctrls.dram.bytesPerActivate::384-511         4160      2.57%     87.30% # Bytes accessed per row activation (Byte)
system.mem_ctrls.dram.bytesPerActivate::512-639         2851      1.76%     89.07% # Bytes accessed per row activation (Byte)
system.mem_ctrls.dram.bytesPerActivate::640-767         2330      1.44%     90.51% # Bytes accessed per row activation (Byte)
system.mem_ctrls.dram.bytesPerActivate::768-895         1742      1.08%     91.59% # Bytes accessed per row activation (Byte)
system.mem_ctrls.dram.bytesPerActivate::896-1023         1462      0.90%     92.49% # Bytes accessed per row activation (Byte)
system.mem_ctrls.dram.bytesPerActivate::1024-1151        12131      7.51%    100.00% # Bytes accessed per row activation (Byte)
system.mem_ctrls.dram.bytesPerActivate::total       161568                       # Bytes accessed per row activation (Byte)
system.mem_ctrls.dram.bytesRead              25776000                       # Total bytes read (Byte)
system.mem_ctrls.dram.bytesWritten            7248896                       # Total bytes written (Byte)
system.mem_ctrls.dram.avgRdBW             1627.290192                       # Average DRAM read bandwidth in MiBytes/s ((Byte/Second))
system.mem_ctrls.dram.avgWrBW              457.637235                       # Average DRAM write bandwidth in MiBytes/s ((Byte/Second))
system.mem_ctrls.dram.peakBW                 19207.00                       # Theoretical peak bandwidth in MiByte/s ((Byte/Second))
system.mem_ctrls.dram.busUtil                   10.86                       # Data bus utilization in percentage (Ratio)
system.mem_ctrls.dram.busUtilRead                8.47                       # Data bus utilization in percentage for reads (Ratio)
system.mem_ctrls.dram.busUtilWrite               2.38                       # Data bus utilization in percentage for writes (Ratio)
system.mem_ctrls.dram.pageHitRate               68.69                       # Row buffer hit rate, read and write combined (Ratio)
system.mem_ctrls.dram.power_state.pwrStateResidencyTicks::UNDEFINED  15839830000                       # Cumulative time (in ticks) in various power states (Tick)
system.mem_ctrls.dram.rank0.actEnergy    247582127.520000                       # Energy for activate commands per rank (pJ) (Joule)
system.mem_ctrls.dram.rank0.preEnergy    329153118.067200                       # Energy for precharge commands per rank (pJ) (Joule)
system.mem_ctrls.dram.rank0.readEnergy   851955817.305598                       # Energy for read commands per rank (pJ) (Joule)
system.mem_ctrls.dram.rank0.writeEnergy  207980134.656000                       # Energy for write commands per rank (pJ) (Joule)
system.mem_ctrls.dram.rank0.refreshEnergy 2819243471.351980                       # Energy for refresh commands per rank (pJ) (Joule)
system.mem_ctrls.dram.rank0.actBackEnergy 13100234997.124699                       # Energy for active background per rank (pJ) (Joule)
system.mem_ctrls.dram.rank0.preBackEnergy 274523650.598402                       # Energy for precharge background per rank (pJ) (Joule)
system.mem_ctrls.dram.rank0.actPowerDownEnergy            0                       # Energy for active power-down per rank (pJ) (Joule)
system.mem_ctrls.dram.rank0.prePowerDownEnergy            0                       # Energy for precharge power-down per rank (pJ) (Joule)
system.mem_ctrls.dram.rank0.selfRefreshEnergy            0                       # Energy for self refresh per rank (pJ) (Joule)
system.mem_ctrls.dram.rank0.totalEnergy  17830673316.624008                       # Total energy per rank (pJ) (Joule)
system.mem_ctrls.dram.rank0.averagePower  1125.685902                       # Core power per rank (mW) (Watt)
system.mem_ctrls.dram.rank0.totalIdleTime            0                       # Total Idle time Per DRAM Rank (Tick)
system.mem_ctrls.dram.rank0.pwrStateTime::IDLE    350035780                       # Time in different power states (Tick)
system.mem_ctrls.dram.rank0.pwrStateTime::REF    712250000                       # Time in different power states (Tick)
system.mem_ctrls.dram.rank0.pwrStateTime::SREF            0                       # Time in different power states (Tick)
system.mem_ctrls.dram.rank0.pwrStateTime::PRE_PDN            0                       # Time in different power states (Tick)
system.mem_ctrls.dram.rank0.pwrStateTime::ACT  14777544220                       # Time in different power states (Tick)
system.mem_ctrls.dram.rank0.pwrStateTime::ACT_PDN            0                       # Time in different power states (Tick)
system.mem_ctrls.dram.rank1.actEnergy    256327108.128000                       # Energy for activate commands per rank (pJ) (Joule)
system.mem_ctrls.dram.rank1.preEnergy    340762872.307200                       # Energy for precharge commands per rank (pJ) (Joule)
system.mem_ctrls.dram.rank1.readEnergy   842138273.894400                       # Energy for read commands per rank (pJ) (Joule)
system.mem_ctrls.dram.rank1.writeEnergy  217722156.288000                       # Energy for write commands per rank (pJ) (Joule)
system.mem_ctrls.dram.rank1.refreshEnergy 2819243471.351980                       # Energy for refresh commands per rank (pJ) (Joule)
system.mem_ctrls.dram.rank1.actBackEnergy 13087767857.975893                       # Energy for active background per rank (pJ) (Joule)
system.mem_ctrls.dram.rank1.preBackEnergy 284102921.356802                       # Energy for precharge background per rank (pJ) (Joule)
system.mem_ctrls.dram.rank1.actPowerDownEnergy            0                       # Energy for active power-down per rank (pJ) (Joule)
system.mem_ctrls.dram.rank1.prePowerDownEnergy            0                       # Energy for precharge power-down per rank (pJ) (Joule)
system.mem_ctrls.dram.rank1.selfRefreshEnergy            0                       # Energy for self refresh per rank (pJ) (Joule)
system.mem_ctrls.dram.rank1.totalEnergy  17848064661.302433                       # Total energy per rank (pJ) (Joule)
system.mem_ctrls.dram.rank1.averagePower  1126.783852                       # Core power per rank (mW) (Watt)
system.mem_ctrls.dram.rank1.totalIdleTime            0                       # Total Idle time Per DRAM Rank (Tick)
system.mem_ctrls.dram.rank1.pwrStateTime::IDLE    360768860                       # Time in different power states (Tick)
system.mem_ctrls.dram.rank1.pwrStateTime::REF    712250000                       # Time in different power states (Tick)
system.mem_ctrls.dram.rank1.pwrStateTime::SREF            0                       # Time in different power states (Tick)
system.mem_ctrls.dram.rank1.pwrStateTime::PRE_PDN            0                       # Time in different power states (Tick)
system.mem_ctrls.dram.rank1.pwrStateTime::ACT  14766811140                       # Time in different power states (Tick)
system.mem_ctrls.dram.rank1.pwrStateTime::ACT_PDN            0                       # Time in different power states (Tick)
system.mem_ctrls.power_state.pwrStateResidencyTicks::UNDEFINED  15839830000                       # Cumulative time (in ticks) in various power states (Tick)
system.membus.transDist::ReadResp              401366                       # Transaction distribution (Count)
system.membus.transDist::WritebackDirty        113315                       # Transaction distribution (Count)
system.membus.transDist::CleanEvict            270762                       # Transaction distribution (Count)
system.membus.transDist::ReadExReq               1465                       # Transaction distribution (Count)
system.membus.transDist::ReadExResp              1465                       # Transaction distribution (Count)
system.membus.transDist::ReadCleanReq          401365                       # Transaction distribution (Count)
system.membus.pktCount_system.l2.mem_side_port::system.mem_ctrls.port      1189738                       # Packet count per connected requestor and responder (Count)
system.membus.pktCount_system.l2.mem_side_port::total      1189738                       # Packet count per connected requestor and responder (Count)
system.membus.pktCount::total                 1189738                       # Packet count per connected requestor and responder (Count)
system.membus.pktSize_system.l2.mem_side_port::system.mem_ctrls.port     33033344                       # Cumulative packet size per connected requestor and responder (Byte)
system.membus.pktSize_system.l2.mem_side_port::total     33033344                       # Cumulative packet size per connected requestor and responder (Byte)
system.membus.pktSize::total                 33033344                       # Cumulative packet size per connected requestor and responder (Byte)
system.membus.snoops                                0                       # Total snoops (Count)
system.membus.snoopTraffic                          0                       # Total snoop traffic (Byte)
system.membus.snoopFanout::samples             402830                       # Request fanout histogram (Count)
system.membus.snoopFanout::mean                     0                       # Request fanout histogram (Count)
system.membus.snoopFanout::stdev                    0                       # Request fanout histogram (Count)
system.membus.snoopFanout::underflows               0      0.00%      0.00% # Request fanout histogram (Count)
system.membus.snoopFanout::0                   402830    100.00%    100.00% # Request fanout histogram (Count)
system.membus.snoopFanout::1                        0      0.00%    100.00% # Request fanout histogram (Count)
system.membus.snoopFanout::2                        0      0.00%    100.00% # Request fanout histogram (Count)
system.membus.snoopFanout::overflows                0      0.00%    100.00% # Request fanout histogram (Count)
system.membus.snoopFanout::min_value                0                       # Request fanout histogram (Count)
system.membus.snoopFanout::max_value                0                       # Request fanout histogram (Count)
system.membus.snoopFanout::total               402830                       # Request fanout histogram (Count)
system.membus.badaddr_responder.power_state.pwrStateResidencyTicks::UNDEFINED  15839830000                       # Cumulative time (in ticks) in various power states (Tick)
system.membus.power_state.pwrStateResidencyTicks::UNDEFINED  15839830000                       # Cumulative time (in ticks) in various power states (Tick)
system.membus.reqLayer4.occupancy          1504986500                       # Layer occupancy (ticks) (Tick)
system.membus.reqLayer4.utilization               0.1                       # Layer utilization (Ratio)
system.membus.respLayer2.occupancy         2155109224                       # Layer occupancy (ticks) (Tick)
system.membus.respLayer2.utilization              0.1                       # Layer utilization (Ratio)
system.membus.snoop_filter.totRequests         786907                       # Total number of requests made to the snoop filter. (Count)
system.membus.snoop_filter.hitSingleRequests       386235                       # Number of requests hitting in the snoop filter with a single holder of the requested data. (Count)
system.membus.snoop_filter.hitMultiRequests            0                       # Number of requests hitting in the snoop filter with multiple (>1) holders of the requested data. (Count)
system.membus.snoop_filter.totSnoops                0                       # Total number of snoops made to the snoop filter. (Count)
system.membus.snoop_filter.hitSingleSnoops            0                       # Number of snoops hitting in the snoop filter with a single holder of the requested data. (Count)
system.membus.snoop_filter.hitMultiSnoops            0                       # Number of snoops hitting in the snoop filter with multiple (>1) holders of the requested data. (Count)
system.mmcs.power_state.pwrStateResidencyTicks::UNDEFINED  15839830000                       # Cumulative time (in ticks) in various power states (Tick)
system.tol2bus.transDist::ReadResp             436944                       # Transaction distribution (Count)
system.tol2bus.transDist::WritebackDirty       279135                       # Transaction distribution (Count)
system.tol2bus.transDist::CleanEvict           272920                       # Transaction distribution (Count)
system.tol2bus.transDist::ReadExReq              2033                       # Transaction distribution (Count)
system.tol2bus.transDist::ReadExResp             2033                       # Transaction distribution (Count)
system.tol2bus.transDist::ReadCleanReq            230                       # Transaction distribution (Count)
system.tol2bus.transDist::ReadSharedReq        436714                       # Transaction distribution (Count)
system.tol2bus.pktCount_system.cpu.icache.mem_side_port::system.l2.cpu_side_port          460                       # Packet count per connected requestor and responder (Count)
system.tol2bus.pktCount_system.cpu.dcache.mem_side_port::system.l2.cpu_side_port      1230516                       # Packet count per connected requestor and responder (Count)
system.tol2bus.pktCount_system.cpu.itb_walker_cache.mem_side_port::system.l2.cpu_side_port           14                       # Packet count per connected requestor and responder (Count)
system.tol2bus.pktCount_system.cpu.dtb_walker_cache.mem_side_port::system.l2.cpu_side_port        85704                       # Packet count per connected requestor and responder (Count)
system.tol2bus.pktCount::total                1316694                       # Packet count per connected requestor and responder (Count)
system.tol2bus.pktSize_system.cpu.icache.mem_side_port::system.l2.cpu_side_port        14720                       # Cumulative packet size per connected requestor and responder (Byte)
system.tol2bus.pktSize_system.cpu.dcache.mem_side_port::system.l2.cpu_side_port     36863488                       # Cumulative packet size per connected requestor and responder (Byte)
system.tol2bus.pktSize_system.cpu.itb_walker_cache.mem_side_port::system.l2.cpu_side_port          448                       # Cumulative packet size per connected requestor and responder (Byte)
system.tol2bus.pktSize_system.cpu.dtb_walker_cache.mem_side_port::system.l2.cpu_side_port      1828352                       # Cumulative packet size per connected requestor and responder (Byte)
system.tol2bus.pktSize::total                38707008                       # Cumulative packet size per connected requestor and responder (Byte)
system.tol2bus.snoops                          113315                       # Total snoops (Count)
system.tol2bus.snoopTraffic                   7252160                       # Total snoop traffic (Byte)
system.tol2bus.snoopFanout::samples            552292                       # Request fanout histogram (Count)
system.tol2bus.snoopFanout::mean             0.003907                       # Request fanout histogram (Count)
system.tol2bus.snoopFanout::stdev            0.062387                       # Request fanout histogram (Count)
system.tol2bus.snoopFanout::underflows              0      0.00%      0.00% # Request fanout histogram (Count)
system.tol2bus.snoopFanout::0                  550134     99.61%     99.61% # Request fanout histogram (Count)
system.tol2bus.snoopFanout::1                    2158      0.39%    100.00% # Request fanout histogram (Count)
system.tol2bus.snoopFanout::2                       0      0.00%    100.00% # Request fanout histogram (Count)
system.tol2bus.snoopFanout::3                       0      0.00%    100.00% # Request fanout histogram (Count)
system.tol2bus.snoopFanout::4                       0      0.00%    100.00% # Request fanout histogram (Count)
system.tol2bus.snoopFanout::overflows               0      0.00%    100.00% # Request fanout histogram (Count)
system.tol2bus.snoopFanout::min_value               0                       # Request fanout histogram (Count)
system.tol2bus.snoopFanout::max_value               1                       # Request fanout histogram (Count)
system.tol2bus.snoopFanout::total              552292                       # Request fanout histogram (Count)
system.tol2bus.power_state.pwrStateResidencyTicks::UNDEFINED  15839830000                       # Cumulative time (in ticks) in various power states (Tick)
system.tol2bus.reqLayer0.occupancy          521768500                       # Layer occupancy (ticks) (Tick)
system.tol2bus.reqLayer0.utilization              0.0                       # Layer utilization (Ratio)
system.tol2bus.respLayer0.occupancy            230000                       # Layer occupancy (ticks) (Tick)
system.tol2bus.respLayer0.utilization             0.0                       # Layer utilization (Ratio)
system.tol2bus.respLayer1.occupancy         410172000                       # Layer occupancy (ticks) (Tick)
system.tol2bus.respLayer1.utilization             0.0                       # Layer utilization (Ratio)
system.tol2bus.respLayer2.occupancy              7000                       # Layer occupancy (ticks) (Tick)
system.tol2bus.respLayer2.utilization             0.0                       # Layer utilization (Ratio)
system.tol2bus.respLayer3.occupancy          28574487                       # Layer occupancy (ticks) (Tick)
system.tol2bus.respLayer3.utilization             0.0                       # Layer utilization (Ratio)
system.tol2bus.snoop_filter.totRequests        877717                       # Total number of requests made to the snoop filter. (Count)
system.tol2bus.snoop_filter.hitSingleRequests       438740                       # Number of requests hitting in the snoop filter with a single holder of the requested data. (Count)
system.tol2bus.snoop_filter.hitMultiRequests         2158                       # Number of requests hitting in the snoop filter with multiple (>1) holders of the requested data. (Count)
system.tol2bus.snoop_filter.totSnoops               0                       # Total number of snoops made to the snoop filter. (Count)
system.tol2bus.snoop_filter.hitSingleSnoops            0                       # Number of snoops hitting in the snoop filter with a single holder of the requested data. (Count)
system.tol2bus.snoop_filter.hitMultiSnoops            0                       # Number of snoops hitting in the snoop filter with multiple (>1) holders of the requested data. (Count)
system.uartlite.power_state.pwrStateResidencyTicks::UNDEFINED  15839830000                       # Cumulative time (in ticks) in various power states (Tick)
system.voltage_domain.voltage                       1                       # Voltage in Volts (Volt)
system.workload.inst.arm                            0                       # number of arm instructions executed (Count)
system.workload.inst.quiesce                        0                       # number of quiesce instructions executed (Count)

---------- End Simulation Statistics   ----------
