
---------- Begin Simulation Statistics ----------
simSeconds                                   0.001751                       # Number of seconds simulated (Second)
simTicks                                   1750602500                       # Number of ticks simulated (Tick)
finalTick                                  1750602500                       # Number of ticks from beginning of simulation (restored from checkpoints and never reset) (Tick)
simFreq                                  1000000000000                       # The number of ticks per simulated second ((Tick/Second))
hostSeconds                                     49.85                       # Real time elapsed on the host (Second)
hostTickRate                                 35117166                       # The number of ticks simulated per host second (ticks/s) ((Tick/Second))
hostMemory                                   16923868                       # Number of bytes of host memory used (Byte)
simInsts                                     10000001                       # Number of instructions simulated (Count)
simOps                                       10000363                       # Number of ops (including micro ops) simulated (Count)
hostInstRate                                   200600                       # Simulator instruction rate (inst/s) ((Count/Second))
hostOpRate                                     200607                       # Simulator op (including micro ops) rate (op/s) ((Count/Second))
system.bridge.power_state.pwrStateResidencyTicks::UNDEFINED   1750602500                       # Cumulative time (in ticks) in various power states (Tick)
system.clk_domain.clock                          1000                       # Clock period in ticks (Tick)
system.cpu.numCycles                          3501206                       # Number of cpu cycles simulated (Cycle)
system.cpu.numWorkItemsStarted                      0                       # Number of work items this cpu started (Count)
system.cpu.numWorkItemsCompleted                    0                       # Number of work items this cpu completed (Count)
system.cpu.instsAdded                        10480764                       # Number of instructions added to the IQ (excludes non-spec) (Count)
system.cpu.nonSpecInstsAdded                       43                       # Number of non-speculative instructions added to the IQ (Count)
system.cpu.instsIssued                       10100857                       # Number of instructions issued (Count)
system.cpu.squashedInstsIssued                  19399                       # Number of squashed instructions issued (Count)
system.cpu.squashedInstsExamined               952369                       # Number of squashed instructions iterated over during squash; mainly for profiling (Count)
system.cpu.squashedOperandsExamined            660775                       # Number of squashed operands that are examined and possibly removed from graph (Count)
system.cpu.numIssuedDist::samples             3443179                       # Number of insts issued each cycle (Count)
system.cpu.numIssuedDist::mean               2.933585                       # Number of insts issued each cycle (Count)
system.cpu.numIssuedDist::stdev              2.648024                       # Number of insts issued each cycle (Count)
system.cpu.numIssuedDist::underflows                0      0.00%      0.00% # Number of insts issued each cycle (Count)
system.cpu.numIssuedDist::0                   1139772     33.10%     33.10% # Number of insts issued each cycle (Count)
system.cpu.numIssuedDist::1                    260576      7.57%     40.67% # Number of insts issued each cycle (Count)
system.cpu.numIssuedDist::2                    282384      8.20%     48.87% # Number of insts issued each cycle (Count)
system.cpu.numIssuedDist::3                    258154      7.50%     56.37% # Number of insts issued each cycle (Count)
system.cpu.numIssuedDist::4                    320570      9.31%     65.68% # Number of insts issued each cycle (Count)
system.cpu.numIssuedDist::5                    280604      8.15%     73.83% # Number of insts issued each cycle (Count)
system.cpu.numIssuedDist::6                    572035     16.61%     90.44% # Number of insts issued each cycle (Count)
system.cpu.numIssuedDist::7                    249131      7.24%     97.68% # Number of insts issued each cycle (Count)
system.cpu.numIssuedDist::8                     79953      2.32%    100.00% # Number of insts issued each cycle (Count)
system.cpu.numIssuedDist::overflows                 0      0.00%    100.00% # Number of insts issued each cycle (Count)
system.cpu.numIssuedDist::min_value                 0                       # Number of insts issued each cycle (Count)
system.cpu.numIssuedDist::max_value                 8                       # Number of insts issued each cycle (Count)
system.cpu.numIssuedDist::total               3443179                       # Number of insts issued each cycle (Count)
system.cpu.statFuBusy::No_OpClass                   0      0.00%      0.00% # attempts to use FU when none available (Count)
system.cpu.statFuBusy::IntAlu                   66025      8.73%      8.73% # attempts to use FU when none available (Count)
system.cpu.statFuBusy::IntMult                  34634      4.58%     13.30% # attempts to use FU when none available (Count)
system.cpu.statFuBusy::IntDiv                   25273      3.34%     16.64% # attempts to use FU when none available (Count)
system.cpu.statFuBusy::FloatAdd                     0      0.00%     16.64% # attempts to use FU when none available (Count)
system.cpu.statFuBusy::FloatCmp                     0      0.00%     16.64% # attempts to use FU when none available (Count)
system.cpu.statFuBusy::FloatCvt                     0      0.00%     16.64% # attempts to use FU when none available (Count)
system.cpu.statFuBusy::FloatMult                    0      0.00%     16.64% # attempts to use FU when none available (Count)
system.cpu.statFuBusy::FloatMultAcc                 0      0.00%     16.64% # attempts to use FU when none available (Count)
system.cpu.statFuBusy::FloatDiv                     0      0.00%     16.64% # attempts to use FU when none available (Count)
system.cpu.statFuBusy::FloatMisc                    0      0.00%     16.64% # attempts to use FU when none available (Count)
system.cpu.statFuBusy::FloatSqrt                    0      0.00%     16.64% # attempts to use FU when none available (Count)
system.cpu.statFuBusy::SimdAdd                      0      0.00%     16.64% # attempts to use FU when none available (Count)
system.cpu.statFuBusy::SimdAddAcc                   0      0.00%     16.64% # attempts to use FU when none available (Count)
system.cpu.statFuBusy::SimdAlu                      0      0.00%     16.64% # attempts to use FU when none available (Count)
system.cpu.statFuBusy::SimdCmp                      0      0.00%     16.64% # attempts to use FU when none available (Count)
system.cpu.statFuBusy::SimdCvt                      0      0.00%     16.64% # attempts to use FU when none available (Count)
system.cpu.statFuBusy::SimdMisc                     0      0.00%     16.64% # attempts to use FU when none available (Count)
system.cpu.statFuBusy::SimdMult                     0      0.00%     16.64% # attempts to use FU when none available (Count)
system.cpu.statFuBusy::SimdMultAcc                  0      0.00%     16.64% # attempts to use FU when none available (Count)
system.cpu.statFuBusy::SimdShift                    0      0.00%     16.64% # attempts to use FU when none available (Count)
system.cpu.statFuBusy::SimdShiftAcc                 0      0.00%     16.64% # attempts to use FU when none available (Count)
system.cpu.statFuBusy::SimdDiv                      0      0.00%     16.64% # attempts to use FU when none available (Count)
system.cpu.statFuBusy::SimdSqrt                     0      0.00%     16.64% # attempts to use FU when none available (Count)
system.cpu.statFuBusy::SimdFloatAdd                 0      0.00%     16.64% # attempts to use FU when none available (Count)
system.cpu.statFuBusy::SimdFloatAlu                 0      0.00%     16.64% # attempts to use FU when none available (Count)
system.cpu.statFuBusy::SimdFloatCmp                 0      0.00%     16.64% # attempts to use FU when none available (Count)
system.cpu.statFuBusy::SimdFloatCvt                 0      0.00%     16.64% # attempts to use FU when none available (Count)
system.cpu.statFuBusy::SimdFloatDiv                 0      0.00%     16.64% # attempts to use FU when none available (Count)
system.cpu.statFuBusy::SimdFloatMisc                0      0.00%     16.64% # attempts to use FU when none available (Count)
system.cpu.statFuBusy::SimdFloatMult                0      0.00%     16.64% # attempts to use FU when none available (Count)
system.cpu.statFuBusy::SimdFloatMultAcc             0      0.00%     16.64% # attempts to use FU when none available (Count)
system.cpu.statFuBusy::SimdFloatSqrt                0      0.00%     16.64% # attempts to use FU when none available (Count)
system.cpu.statFuBusy::SimdReduceAdd                0      0.00%     16.64% # attempts to use FU when none available (Count)
system.cpu.statFuBusy::SimdReduceAlu                0      0.00%     16.64% # attempts to use FU when none available (Count)
system.cpu.statFuBusy::SimdReduceCmp                0      0.00%     16.64% # attempts to use FU when none available (Count)
system.cpu.statFuBusy::SimdFloatReduceAdd            0      0.00%     16.64% # attempts to use FU when none available (Count)
system.cpu.statFuBusy::SimdFloatReduceCmp            0      0.00%     16.64% # attempts to use FU when none available (Count)
system.cpu.statFuBusy::SimdAes                      0      0.00%     16.64% # attempts to use FU when none available (Count)
system.cpu.statFuBusy::SimdAesMix                   0      0.00%     16.64% # attempts to use FU when none available (Count)
system.cpu.statFuBusy::SimdSha1Hash                 0      0.00%     16.64% # attempts to use FU when none available (Count)
system.cpu.statFuBusy::SimdSha1Hash2                0      0.00%     16.64% # attempts to use FU when none available (Count)
system.cpu.statFuBusy::SimdSha256Hash               0      0.00%     16.64% # attempts to use FU when none available (Count)
system.cpu.statFuBusy::SimdSha256Hash2              0      0.00%     16.64% # attempts to use FU when none available (Count)
system.cpu.statFuBusy::SimdShaSigma2                0      0.00%     16.64% # attempts to use FU when none available (Count)
system.cpu.statFuBusy::SimdShaSigma3                0      0.00%     16.64% # attempts to use FU when none available (Count)
system.cpu.statFuBusy::SimdPredAlu                  0      0.00%     16.64% # attempts to use FU when none available (Count)
system.cpu.statFuBusy::MemRead                 524771     69.35%     85.99% # attempts to use FU when none available (Count)
system.cpu.statFuBusy::MemWrite                102443     13.54%     99.53% # attempts to use FU when none available (Count)
system.cpu.statFuBusy::FloatMemRead              3244      0.43%     99.96% # attempts to use FU when none available (Count)
system.cpu.statFuBusy::FloatMemWrite              292      0.04%    100.00% # attempts to use FU when none available (Count)
system.cpu.statFuBusy::IprAccess                    0      0.00%    100.00% # attempts to use FU when none available (Count)
system.cpu.statFuBusy::InstPrefetch                 0      0.00%    100.00% # attempts to use FU when none available (Count)
system.cpu.statFuBusy::FMAMul                       0      0.00%    100.00% # attempts to use FU when none available (Count)
system.cpu.statFuBusy::FMAAcc                       0      0.00%    100.00% # attempts to use FU when none available (Count)
system.cpu.statIssuedInstType_0::No_OpClass           42      0.00%      0.00% # Number of instructions issued per FU type, per thread (Count)
system.cpu.statIssuedInstType_0::IntAlu       5737310     56.80%     56.80% # Number of instructions issued per FU type, per thread (Count)
system.cpu.statIssuedInstType_0::IntMult        90401      0.89%     57.70% # Number of instructions issued per FU type, per thread (Count)
system.cpu.statIssuedInstType_0::IntDiv         17010      0.17%     57.86% # Number of instructions issued per FU type, per thread (Count)
system.cpu.statIssuedInstType_0::FloatAdd          184      0.00%     57.87% # Number of instructions issued per FU type, per thread (Count)
system.cpu.statIssuedInstType_0::FloatCmp          376      0.00%     57.87% # Number of instructions issued per FU type, per thread (Count)
system.cpu.statIssuedInstType_0::FloatCvt         1177      0.01%     57.88% # Number of instructions issued per FU type, per thread (Count)
system.cpu.statIssuedInstType_0::FloatMult            0      0.00%     57.88% # Number of instructions issued per FU type, per thread (Count)
system.cpu.statIssuedInstType_0::FloatMultAcc            0      0.00%     57.88% # Number of instructions issued per FU type, per thread (Count)
system.cpu.statIssuedInstType_0::FloatDiv            0      0.00%     57.88% # Number of instructions issued per FU type, per thread (Count)
system.cpu.statIssuedInstType_0::FloatMisc          181      0.00%     57.88% # Number of instructions issued per FU type, per thread (Count)
system.cpu.statIssuedInstType_0::FloatSqrt            0      0.00%     57.88% # Number of instructions issued per FU type, per thread (Count)
system.cpu.statIssuedInstType_0::SimdAdd            0      0.00%     57.88% # Number of instructions issued per FU type, per thread (Count)
system.cpu.statIssuedInstType_0::SimdAddAcc            0      0.00%     57.88% # Number of instructions issued per FU type, per thread (Count)
system.cpu.statIssuedInstType_0::SimdAlu            0      0.00%     57.88% # Number of instructions issued per FU type, per thread (Count)
system.cpu.statIssuedInstType_0::SimdCmp            0      0.00%     57.88% # Number of instructions issued per FU type, per thread (Count)
system.cpu.statIssuedInstType_0::SimdCvt            0      0.00%     57.88% # Number of instructions issued per FU type, per thread (Count)
system.cpu.statIssuedInstType_0::SimdMisc            0      0.00%     57.88% # Number of instructions issued per FU type, per thread (Count)
system.cpu.statIssuedInstType_0::SimdMult            0      0.00%     57.88% # Number of instructions issued per FU type, per thread (Count)
system.cpu.statIssuedInstType_0::SimdMultAcc            0      0.00%     57.88% # Number of instructions issued per FU type, per thread (Count)
system.cpu.statIssuedInstType_0::SimdShift            0      0.00%     57.88% # Number of instructions issued per FU type, per thread (Count)
system.cpu.statIssuedInstType_0::SimdShiftAcc            0      0.00%     57.88% # Number of instructions issued per FU type, per thread (Count)
system.cpu.statIssuedInstType_0::SimdDiv            0      0.00%     57.88% # Number of instructions issued per FU type, per thread (Count)
system.cpu.statIssuedInstType_0::SimdSqrt            0      0.00%     57.88% # Number of instructions issued per FU type, per thread (Count)
system.cpu.statIssuedInstType_0::SimdFloatAdd            0      0.00%     57.88% # Number of instructions issued per FU type, per thread (Count)
system.cpu.statIssuedInstType_0::SimdFloatAlu            0      0.00%     57.88% # Number of instructions issued per FU type, per thread (Count)
system.cpu.statIssuedInstType_0::SimdFloatCmp            0      0.00%     57.88% # Number of instructions issued per FU type, per thread (Count)
system.cpu.statIssuedInstType_0::SimdFloatCvt            0      0.00%     57.88% # Number of instructions issued per FU type, per thread (Count)
system.cpu.statIssuedInstType_0::SimdFloatDiv            0      0.00%     57.88% # Number of instructions issued per FU type, per thread (Count)
system.cpu.statIssuedInstType_0::SimdFloatMisc            0      0.00%     57.88% # Number of instructions issued per FU type, per thread (Count)
system.cpu.statIssuedInstType_0::SimdFloatMult            0      0.00%     57.88% # Number of instructions issued per FU type, per thread (Count)
system.cpu.statIssuedInstType_0::SimdFloatMultAcc            0      0.00%     57.88% # Number of instructions issued per FU type, per thread (Count)
system.cpu.statIssuedInstType_0::SimdFloatSqrt            0      0.00%     57.88% # Number of instructions issued per FU type, per thread (Count)
system.cpu.statIssuedInstType_0::SimdReduceAdd            0      0.00%     57.88% # Number of instructions issued per FU type, per thread (Count)
system.cpu.statIssuedInstType_0::SimdReduceAlu            0      0.00%     57.88% # Number of instructions issued per FU type, per thread (Count)
system.cpu.statIssuedInstType_0::SimdReduceCmp            0      0.00%     57.88% # Number of instructions issued per FU type, per thread (Count)
system.cpu.statIssuedInstType_0::SimdFloatReduceAdd            0      0.00%     57.88% # Number of instructions issued per FU type, per thread (Count)
system.cpu.statIssuedInstType_0::SimdFloatReduceCmp            0      0.00%     57.88% # Number of instructions issued per FU type, per thread (Count)
system.cpu.statIssuedInstType_0::SimdAes            0      0.00%     57.88% # Number of instructions issued per FU type, per thread (Count)
system.cpu.statIssuedInstType_0::SimdAesMix            0      0.00%     57.88% # Number of instructions issued per FU type, per thread (Count)
system.cpu.statIssuedInstType_0::SimdSha1Hash            0      0.00%     57.88% # Number of instructions issued per FU type, per thread (Count)
system.cpu.statIssuedInstType_0::SimdSha1Hash2            0      0.00%     57.88% # Number of instructions issued per FU type, per thread (Count)
system.cpu.statIssuedInstType_0::SimdSha256Hash            0      0.00%     57.88% # Number of instructions issued per FU type, per thread (Count)
system.cpu.statIssuedInstType_0::SimdSha256Hash2            0      0.00%     57.88% # Number of instructions issued per FU type, per thread (Count)
system.cpu.statIssuedInstType_0::SimdShaSigma2            0      0.00%     57.88% # Number of instructions issued per FU type, per thread (Count)
system.cpu.statIssuedInstType_0::SimdShaSigma3            0      0.00%     57.88% # Number of instructions issued per FU type, per thread (Count)
system.cpu.statIssuedInstType_0::SimdPredAlu            0      0.00%     57.88% # Number of instructions issued per FU type, per thread (Count)
system.cpu.statIssuedInstType_0::MemRead      2556979     25.31%     83.20% # Number of instructions issued per FU type, per thread (Count)
system.cpu.statIssuedInstType_0::MemWrite      1694874     16.78%     99.98% # Number of instructions issued per FU type, per thread (Count)
system.cpu.statIssuedInstType_0::FloatMemRead         1253      0.01%     99.99% # Number of instructions issued per FU type, per thread (Count)
system.cpu.statIssuedInstType_0::FloatMemWrite          324      0.00%     99.99% # Number of instructions issued per FU type, per thread (Count)
system.cpu.statIssuedInstType_0::IprAccess            0      0.00%     99.99% # Number of instructions issued per FU type, per thread (Count)
system.cpu.statIssuedInstType_0::InstPrefetch            0      0.00%     99.99% # Number of instructions issued per FU type, per thread (Count)
system.cpu.statIssuedInstType_0::FMAMul           374      0.00%    100.00% # Number of instructions issued per FU type, per thread (Count)
system.cpu.statIssuedInstType_0::FMAAcc           372      0.00%    100.00% # Number of instructions issued per FU type, per thread (Count)
system.cpu.statIssuedInstType_0::total       10100857                       # Number of instructions issued per FU type, per thread (Count)
system.cpu.issueRate                         2.884965                       # Inst issue rate ((Count/Cycle))
system.cpu.fuBusy                              756682                       # FU busy when requested (Count)
system.cpu.fuBusyRate                        0.074913                       # FU busy rate (busy events/executed inst) ((Count/Count))
system.cpu.intInstQueueReads                 24408919                       # Number of integer instruction queue reads (Count)
system.cpu.intInstQueueWrites                11434569                       # Number of integer instruction queue writes (Count)
system.cpu.intInstQueueWakeupAccesses        10000655                       # Number of integer instruction queue wakeup accesses (Count)
system.cpu.fpInstQueueReads                     12044                       # Number of floating instruction queue reads (Count)
system.cpu.fpInstQueueWrites                     4540                       # Number of floating instruction queue writes (Count)
system.cpu.fpInstQueueWakeupAccesses             4221                       # Number of floating instruction queue wakeup accesses (Count)
system.cpu.vecInstQueueReads                        0                       # Number of vector instruction queue reads (Count)
system.cpu.vecInstQueueWrites                       0                       # Number of vector instruction queue writes (Count)
system.cpu.vecInstQueueWakeupAccesses               0                       # Number of vector instruction queue wakeup accesses (Count)
system.cpu.intAluAccesses                    10849720                       # Number of integer alu accesses (Count)
system.cpu.fpAluAccesses                         7777                       # Number of floating point alu accesses (Count)
system.cpu.vecAluAccesses                           0                       # Number of vector alu accesses (Count)
system.cpu.numInsts                          10029139                       # Number of executed instructions (Count)
system.cpu.numLoadInsts                       2525551                       # Number of load instructions executed (Count)
system.cpu.numSquashedInsts                     69081                       # Number of squashed instructions skipped in execute (Count)
system.cpu.numSwp                                   0                       # Number of swp insts executed (Count)
system.cpu.numNop                              507108                       # Number of nop insts executed (Count)
system.cpu.numRefs                            4207168                       # Number of memory reference insts executed (Count)
system.cpu.numBranches                        1091628                       # Number of branches executed (Count)
system.cpu.numStoreInsts                      1681617                       # Number of stores executed (Count)
system.cpu.numRate                           2.864481                       # Inst execution rate ((Count/Cycle))
system.cpu.timesIdled                             697                       # Number of times that the entire CPU went into an idle state and unscheduled itself (Count)
system.cpu.idleCycles                           58027                       # Total number of cycles that the CPU has spent unscheduled due to idling (Cycle)
system.cpu.committedInsts                    10000001                       # Number of Instructions Simulated (Count)
system.cpu.committedOps                      10000363                       # Number of Ops (including micro ops) Simulated (Count)
system.cpu.cpi                               0.350121                       # CPI: Cycles Per Instruction ((Cycle/Count))
system.cpu.totalCpi                          0.350121                       # CPI: Total CPI of All Threads ((Cycle/Count))
system.cpu.ipc                               2.856159                       # IPC: Instructions Per Cycle ((Count/Cycle))
system.cpu.totalIpc                          2.856159                       # IPC: Total IPC of All Threads ((Count/Cycle))
system.cpu.intRegfileReads                   13267343                       # Number of integer regfile reads (Count)
system.cpu.intRegfileWrites                   7298265                       # Number of integer regfile writes (Count)
system.cpu.fpRegfileReads                        3335                       # Number of floating regfile reads (Count)
system.cpu.fpRegfileWrites                       2764                       # Number of floating regfile writes (Count)
system.cpu.miscRegfileReads                  74197833                       # number of misc regfile reads (Count)
system.cpu.miscRegfileWrites                     3454                       # number of misc regfile writes (Count)
system.cpu.lastCommitTick                  1750602500                       # The last tick to commit an instruction (Count)
system.cpu.MemDepUnit__0.insertedLoads        2648205                       # Number of loads inserted to the mem dependence unit. (Count)
system.cpu.MemDepUnit__0.insertedStores       1760582                       # Number of stores inserted to the mem dependence unit. (Count)
system.cpu.MemDepUnit__0.conflictingLoads       438844                       # Number of conflicting loads. (Count)
system.cpu.MemDepUnit__0.conflictingStores       446798                       # Number of conflicting stores. (Count)
system.cpu.MemDepUnit__1.insertedLoads              0                       # Number of loads inserted to the mem dependence unit. (Count)
system.cpu.MemDepUnit__1.insertedStores             0                       # Number of stores inserted to the mem dependence unit. (Count)
system.cpu.MemDepUnit__1.conflictingLoads            0                       # Number of conflicting loads. (Count)
system.cpu.MemDepUnit__1.conflictingStores            0                       # Number of conflicting stores. (Count)
system.cpu.MemDepUnit__2.insertedLoads              0                       # Number of loads inserted to the mem dependence unit. (Count)
system.cpu.MemDepUnit__2.insertedStores             0                       # Number of stores inserted to the mem dependence unit. (Count)
system.cpu.MemDepUnit__2.conflictingLoads            0                       # Number of conflicting loads. (Count)
system.cpu.MemDepUnit__2.conflictingStores            0                       # Number of conflicting stores. (Count)
system.cpu.MemDepUnit__3.insertedLoads              0                       # Number of loads inserted to the mem dependence unit. (Count)
system.cpu.MemDepUnit__3.insertedStores             0                       # Number of stores inserted to the mem dependence unit. (Count)
system.cpu.MemDepUnit__3.conflictingLoads            0                       # Number of conflicting loads. (Count)
system.cpu.MemDepUnit__3.conflictingStores            0                       # Number of conflicting stores. (Count)
system.cpu.branchPred.lookups                 1500152                       # Number of BP lookups (Count)
system.cpu.branchPred.condPredicted           1078350                       # Number of conditional branches predicted (Count)
system.cpu.branchPred.condIncorrect             23967                       # Number of conditional branches incorrect (Count)
system.cpu.branchPred.BTBLookups               881570                       # Number of BTB lookups (Count)
system.cpu.branchPred.BTBHits                  866611                       # Number of BTB hits (Count)
system.cpu.branchPred.BTBHitRatio            0.983031                       # BTB Hit Ratio (Ratio)
system.cpu.branchPred.RASUsed                   91755                       # Number of times the RAS was used to get a target. (Count)
system.cpu.branchPred.RASIncorrect                469                       # Number of incorrect RAS predictions. (Count)
system.cpu.branchPred.indirectLookups           48974                       # Number of indirect predictor lookups. (Count)
system.cpu.branchPred.indirectHits              48974                       # Number of indirect target hits. (Count)
system.cpu.branchPred.indirectMisses                0                       # Number of indirect misses. (Count)
system.cpu.branchPred.indirectMispredicted          159                       # Number of mispredicted indirect branches. (Count)
system.cpu.branchPred.indirectBranchPred.mainlookupHit        41630                       # ittage the provider component lookup hit (Count)
system.cpu.branchPred.loop_predictor.correct       526739                       # Number of times the loop predictor is the provider and the prediction is correct (Count)
system.cpu.branchPred.loop_predictor.wrong       179136                       # Number of times the loop predictor is the provider and the prediction is wrong (Count)
system.cpu.branchPred.tage.longestMatchProviderCorrect       526733                       # Number of times TAGE Longest Match is the provider and the prediction is correct (Count)
system.cpu.branchPred.tage.altMatchProviderCorrect         6403                       # Number of times TAGE Alt Match is the provider and the prediction is correct (Count)
system.cpu.branchPred.tage.bimodalAltMatchProviderCorrect         1861                       # Number of times TAGE Alt Match is the bimodal and it is the provider and the prediction is correct (Count)
system.cpu.branchPred.tage.bimodalProviderCorrect       153885                       # Number of times there are no hits on the TAGE tables and the bimodal prediction is correct (Count)
system.cpu.branchPred.tage.longestMatchProviderWrong        10136                       # Number of times TAGE Longest Match is the provider and the prediction is wrong (Count)
system.cpu.branchPred.tage.altMatchProviderWrong         2497                       # Number of times TAGE Alt Match is the provider and the prediction is wrong (Count)
system.cpu.branchPred.tage.bimodalAltMatchProviderWrong         1008                       # Number of times TAGE Alt Match is the bimodal and it is the provider and the prediction is wrong (Count)
system.cpu.branchPred.tage.bimodalProviderWrong         3352                       # Number of times there are no hits on the TAGE tables and the bimodal prediction is wrong (Count)
system.cpu.branchPred.tage.altMatchProviderWouldHaveHit         3271                       # Number of times TAGE Longest Match is the provider, the prediction is wrong and Alt Match prediction was correct (Count)
system.cpu.branchPred.tage.longestMatchProviderWouldHaveHit         2363                       # Number of times TAGE Alt Match is the provider, the prediction is wrong and Longest Match prediction was correct (Count)
system.cpu.branchPred.tage.longestMatchProvider::0            0                       # TAGE provider for longest match (Count)
system.cpu.branchPred.tage.longestMatchProvider::1        71050                       # TAGE provider for longest match (Count)
system.cpu.branchPred.tage.longestMatchProvider::2        44464                       # TAGE provider for longest match (Count)
system.cpu.branchPred.tage.longestMatchProvider::3        48244                       # TAGE provider for longest match (Count)
system.cpu.branchPred.tage.longestMatchProvider::4        36349                       # TAGE provider for longest match (Count)
system.cpu.branchPred.tage.longestMatchProvider::5        51582                       # TAGE provider for longest match (Count)
system.cpu.branchPred.tage.longestMatchProvider::6       186867                       # TAGE provider for longest match (Count)
system.cpu.branchPred.tage.longestMatchProvider::7        34113                       # TAGE provider for longest match (Count)
system.cpu.branchPred.tage.longestMatchProvider::8        19530                       # TAGE provider for longest match (Count)
system.cpu.branchPred.tage.longestMatchProvider::9        18707                       # TAGE provider for longest match (Count)
system.cpu.branchPred.tage.longestMatchProvider::10        22111                       # TAGE provider for longest match (Count)
system.cpu.branchPred.tage.longestMatchProvider::11         5654                       # TAGE provider for longest match (Count)
system.cpu.branchPred.tage.longestMatchProvider::12         7098                       # TAGE provider for longest match (Count)
system.cpu.branchPred.tage.altMatchProvider::0       107587                       # TAGE provider for alt match (Count)
system.cpu.branchPred.tage.altMatchProvider::1        55045                       # TAGE provider for alt match (Count)
system.cpu.branchPred.tage.altMatchProvider::2        29779                       # TAGE provider for alt match (Count)
system.cpu.branchPred.tage.altMatchProvider::3        34043                       # TAGE provider for alt match (Count)
system.cpu.branchPred.tage.altMatchProvider::4        32588                       # TAGE provider for alt match (Count)
system.cpu.branchPred.tage.altMatchProvider::5       187663                       # TAGE provider for alt match (Count)
system.cpu.branchPred.tage.altMatchProvider::6        39434                       # TAGE provider for alt match (Count)
system.cpu.branchPred.tage.altMatchProvider::7        22932                       # TAGE provider for alt match (Count)
system.cpu.branchPred.tage.altMatchProvider::8        15102                       # TAGE provider for alt match (Count)
system.cpu.branchPred.tage.altMatchProvider::9        11687                       # TAGE provider for alt match (Count)
system.cpu.branchPred.tage.altMatchProvider::10         3528                       # TAGE provider for alt match (Count)
system.cpu.branchPred.tage.altMatchProvider::11         6381                       # TAGE provider for alt match (Count)
system.cpu.branchPred.tage.altMatchProvider::12            0                       # TAGE provider for alt match (Count)
system.cpu.commit.commitSquashedInsts          987445                       # The number of squashed insts skipped by commit (Count)
system.cpu.commit.commitNonSpecStalls              43                       # The number of times commit has been forced to stall to communicate backwards (Count)
system.cpu.commit.branchMispredicts             20720                       # The number of times a branch was mispredicted (Count)
system.cpu.commit.numCommittedDist::samples      3258230                       # Number of insts commited each cycle (Count)
system.cpu.commit.numCommittedDist::mean     3.069262                       # Number of insts commited each cycle (Count)
system.cpu.commit.numCommittedDist::stdev     2.869574                       # Number of insts commited each cycle (Count)
system.cpu.commit.numCommittedDist::underflows            0      0.00%      0.00% # Number of insts commited each cycle (Count)
system.cpu.commit.numCommittedDist::0         1368291     41.99%     41.99% # Number of insts commited each cycle (Count)
system.cpu.commit.numCommittedDist::1          138347      4.25%     46.24% # Number of insts commited each cycle (Count)
system.cpu.commit.numCommittedDist::2           80083      2.46%     48.70% # Number of insts commited each cycle (Count)
system.cpu.commit.numCommittedDist::3           68711      2.11%     50.81% # Number of insts commited each cycle (Count)
system.cpu.commit.numCommittedDist::4           38378      1.18%     51.99% # Number of insts commited each cycle (Count)
system.cpu.commit.numCommittedDist::5           44666      1.37%     53.36% # Number of insts commited each cycle (Count)
system.cpu.commit.numCommittedDist::6         1519403     46.63%     99.99% # Number of insts commited each cycle (Count)
system.cpu.commit.numCommittedDist::overflows          351      0.01%    100.00% # Number of insts commited each cycle (Count)
system.cpu.commit.numCommittedDist::min_value            0                       # Number of insts commited each cycle (Count)
system.cpu.commit.numCommittedDist::max_value            7                       # Number of insts commited each cycle (Count)
system.cpu.commit.numCommittedDist::total      3258230                       # Number of insts commited each cycle (Count)
system.cpu.commit.instsCommitted             10000001                       # Number of instructions committed (Count)
system.cpu.commit.opsCommitted               10000363                       # Number of ops (including micro ops) committed (Count)
system.cpu.commit.memRefs                     4075235                       # Number of memory references committed (Count)
system.cpu.commit.loads                       2408152                       # Number of loads committed (Count)
system.cpu.commit.amos                              0                       # Number of atomic instructions committed (Count)
system.cpu.commit.membars                           0                       # Number of memory barriers committed (Count)
system.cpu.commit.branches                    1009225                       # Number of branches committed (Count)
system.cpu.commit.vectorInstructions                0                       # Number of committed Vector instructions. (Count)
system.cpu.commit.floating                       4088                       # Number of committed floating point instructions. (Count)
system.cpu.commit.integer                     9804680                       # Number of committed integer instructions. (Count)
system.cpu.commit.functionCalls                 51168                       # Number of function calls committed. (Count)
system.cpu.commit.committedInstType_0::No_OpClass           42      0.00%      0.00% # Class of committed instruction (Count)
system.cpu.commit.committedInstType_0::IntAlu      5819891     58.20%     58.20% # Class of committed instruction (Count)
system.cpu.commit.committedInstType_0::IntMult        85973      0.86%     59.06% # Class of committed instruction (Count)
system.cpu.commit.committedInstType_0::IntDiv        16612      0.17%     59.22% # Class of committed instruction (Count)
system.cpu.commit.committedInstType_0::FloatAdd          182      0.00%     59.22% # Class of committed instruction (Count)
system.cpu.commit.committedInstType_0::FloatCmp          364      0.00%     59.23% # Class of committed instruction (Count)
system.cpu.commit.committedInstType_0::FloatCvt         1159      0.01%     59.24% # Class of committed instruction (Count)
system.cpu.commit.committedInstType_0::FloatMult            0      0.00%     59.24% # Class of committed instruction (Count)
system.cpu.commit.committedInstType_0::FloatMultAcc            0      0.00%     59.24% # Class of committed instruction (Count)
system.cpu.commit.committedInstType_0::FloatDiv            0      0.00%     59.24% # Class of committed instruction (Count)
system.cpu.commit.committedInstType_0::FloatMisc          181      0.00%     59.24% # Class of committed instruction (Count)
system.cpu.commit.committedInstType_0::FloatSqrt            0      0.00%     59.24% # Class of committed instruction (Count)
system.cpu.commit.committedInstType_0::SimdAdd            0      0.00%     59.24% # Class of committed instruction (Count)
system.cpu.commit.committedInstType_0::SimdAddAcc            0      0.00%     59.24% # Class of committed instruction (Count)
system.cpu.commit.committedInstType_0::SimdAlu            0      0.00%     59.24% # Class of committed instruction (Count)
system.cpu.commit.committedInstType_0::SimdCmp            0      0.00%     59.24% # Class of committed instruction (Count)
system.cpu.commit.committedInstType_0::SimdCvt            0      0.00%     59.24% # Class of committed instruction (Count)
system.cpu.commit.committedInstType_0::SimdMisc            0      0.00%     59.24% # Class of committed instruction (Count)
system.cpu.commit.committedInstType_0::SimdMult            0      0.00%     59.24% # Class of committed instruction (Count)
system.cpu.commit.committedInstType_0::SimdMultAcc            0      0.00%     59.24% # Class of committed instruction (Count)
system.cpu.commit.committedInstType_0::SimdShift            0      0.00%     59.24% # Class of committed instruction (Count)
system.cpu.commit.committedInstType_0::SimdShiftAcc            0      0.00%     59.24% # Class of committed instruction (Count)
system.cpu.commit.committedInstType_0::SimdDiv            0      0.00%     59.24% # Class of committed instruction (Count)
system.cpu.commit.committedInstType_0::SimdSqrt            0      0.00%     59.24% # Class of committed instruction (Count)
system.cpu.commit.committedInstType_0::SimdFloatAdd            0      0.00%     59.24% # Class of committed instruction (Count)
system.cpu.commit.committedInstType_0::SimdFloatAlu            0      0.00%     59.24% # Class of committed instruction (Count)
system.cpu.commit.committedInstType_0::SimdFloatCmp            0      0.00%     59.24% # Class of committed instruction (Count)
system.cpu.commit.committedInstType_0::SimdFloatCvt            0      0.00%     59.24% # Class of committed instruction (Count)
system.cpu.commit.committedInstType_0::SimdFloatDiv            0      0.00%     59.24% # Class of committed instruction (Count)
system.cpu.commit.committedInstType_0::SimdFloatMisc            0      0.00%     59.24% # Class of committed instruction (Count)
system.cpu.commit.committedInstType_0::SimdFloatMult            0      0.00%     59.24% # Class of committed instruction (Count)
system.cpu.commit.committedInstType_0::SimdFloatMultAcc            0      0.00%     59.24% # Class of committed instruction (Count)
system.cpu.commit.committedInstType_0::SimdFloatSqrt            0      0.00%     59.24% # Class of committed instruction (Count)
system.cpu.commit.committedInstType_0::SimdReduceAdd            0      0.00%     59.24% # Class of committed instruction (Count)
system.cpu.commit.committedInstType_0::SimdReduceAlu            0      0.00%     59.24% # Class of committed instruction (Count)
system.cpu.commit.committedInstType_0::SimdReduceCmp            0      0.00%     59.24% # Class of committed instruction (Count)
system.cpu.commit.committedInstType_0::SimdFloatReduceAdd            0      0.00%     59.24% # Class of committed instruction (Count)
system.cpu.commit.committedInstType_0::SimdFloatReduceCmp            0      0.00%     59.24% # Class of committed instruction (Count)
system.cpu.commit.committedInstType_0::SimdAes            0      0.00%     59.24% # Class of committed instruction (Count)
system.cpu.commit.committedInstType_0::SimdAesMix            0      0.00%     59.24% # Class of committed instruction (Count)
system.cpu.commit.committedInstType_0::SimdSha1Hash            0      0.00%     59.24% # Class of committed instruction (Count)
system.cpu.commit.committedInstType_0::SimdSha1Hash2            0      0.00%     59.24% # Class of committed instruction (Count)
system.cpu.commit.committedInstType_0::SimdSha256Hash            0      0.00%     59.24% # Class of committed instruction (Count)
system.cpu.commit.committedInstType_0::SimdSha256Hash2            0      0.00%     59.24% # Class of committed instruction (Count)
system.cpu.commit.committedInstType_0::SimdShaSigma2            0      0.00%     59.24% # Class of committed instruction (Count)
system.cpu.commit.committedInstType_0::SimdShaSigma3            0      0.00%     59.24% # Class of committed instruction (Count)
system.cpu.commit.committedInstType_0::SimdPredAlu            0      0.00%     59.24% # Class of committed instruction (Count)
system.cpu.commit.committedInstType_0::MemRead      2406973     24.07%     83.31% # Class of committed instruction (Count)
system.cpu.commit.committedInstType_0::MemWrite      1666784     16.67%     99.98% # Class of committed instruction (Count)
system.cpu.commit.committedInstType_0::FloatMemRead         1179      0.01%     99.99% # Class of committed instruction (Count)
system.cpu.commit.committedInstType_0::FloatMemWrite          299      0.00%     99.99% # Class of committed instruction (Count)
system.cpu.commit.committedInstType_0::IprAccess            0      0.00%     99.99% # Class of committed instruction (Count)
system.cpu.commit.committedInstType_0::InstPrefetch            0      0.00%     99.99% # Class of committed instruction (Count)
system.cpu.commit.committedInstType_0::FMAMul          362      0.00%    100.00% # Class of committed instruction (Count)
system.cpu.commit.committedInstType_0::FMAAcc          362      0.00%    100.00% # Class of committed instruction (Count)
system.cpu.commit.committedInstType_0::total     10000363                       # Class of committed instruction (Count)
system.cpu.commit.commitEligibleSamples       1519403                       # number cycles where commit BW limit reached (Cycle)
system.cpu.dcache.demandHits::cpu.data        4019040                       # number of demand (read+write) hits (Count)
system.cpu.dcache.demandHits::total           4019040                       # number of demand (read+write) hits (Count)
system.cpu.dcache.overallHits::cpu.data       4019040                       # number of overall hits (Count)
system.cpu.dcache.overallHits::total          4019040                       # number of overall hits (Count)
system.cpu.dcache.demandMisses::cpu.data        93021                       # number of demand (read+write) misses (Count)
system.cpu.dcache.demandMisses::total           93021                       # number of demand (read+write) misses (Count)
system.cpu.dcache.overallMisses::cpu.data        93021                       # number of overall misses (Count)
system.cpu.dcache.overallMisses::total          93021                       # number of overall misses (Count)
system.cpu.dcache.demandMissLatency::cpu.data   4758738933                       # number of demand (read+write) miss ticks (Tick)
system.cpu.dcache.demandMissLatency::total   4758738933                       # number of demand (read+write) miss ticks (Tick)
system.cpu.dcache.overallMissLatency::cpu.data   4758738933                       # number of overall miss ticks (Tick)
system.cpu.dcache.overallMissLatency::total   4758738933                       # number of overall miss ticks (Tick)
system.cpu.dcache.demandAccesses::cpu.data      4112061                       # number of demand (read+write) accesses (Count)
system.cpu.dcache.demandAccesses::total       4112061                       # number of demand (read+write) accesses (Count)
system.cpu.dcache.overallAccesses::cpu.data      4112061                       # number of overall (read+write) accesses (Count)
system.cpu.dcache.overallAccesses::total      4112061                       # number of overall (read+write) accesses (Count)
system.cpu.dcache.demandMissRate::cpu.data     0.022622                       # miss rate for demand accesses (Ratio)
system.cpu.dcache.demandMissRate::total      0.022622                       # miss rate for demand accesses (Ratio)
system.cpu.dcache.overallMissRate::cpu.data     0.022622                       # miss rate for overall accesses (Ratio)
system.cpu.dcache.overallMissRate::total     0.022622                       # miss rate for overall accesses (Ratio)
system.cpu.dcache.demandAvgMissLatency::cpu.data 51157.684104                       # average overall miss latency in ticks ((Tick/Count))
system.cpu.dcache.demandAvgMissLatency::total 51157.684104                       # average overall miss latency in ticks ((Tick/Count))
system.cpu.dcache.overallAvgMissLatency::cpu.data 51157.684104                       # average overall miss latency ((Tick/Count))
system.cpu.dcache.overallAvgMissLatency::total 51157.684104                       # average overall miss latency ((Tick/Count))
system.cpu.dcache.blockedCycles::no_mshrs         1207                       # number of cycles access was blocked (Cycle)
system.cpu.dcache.blockedCycles::no_targets         5083                       # number of cycles access was blocked (Cycle)
system.cpu.dcache.blockedCauses::no_mshrs          107                       # number of times access was blocked (Count)
system.cpu.dcache.blockedCauses::no_targets          125                       # number of times access was blocked (Count)
system.cpu.dcache.avgBlocked::no_mshrs      11.280374                       # average number of cycles each access was blocked ((Cycle/Count))
system.cpu.dcache.avgBlocked::no_targets    40.664000                       # average number of cycles each access was blocked ((Cycle/Count))
system.cpu.dcache.writebacks::writebacks        11407                       # number of writebacks (Count)
system.cpu.dcache.writebacks::total             11407                       # number of writebacks (Count)
system.cpu.dcache.demandMshrHits::cpu.data        79566                       # number of demand (read+write) MSHR hits (Count)
system.cpu.dcache.demandMshrHits::total         79566                       # number of demand (read+write) MSHR hits (Count)
system.cpu.dcache.overallMshrHits::cpu.data        79566                       # number of overall MSHR hits (Count)
system.cpu.dcache.overallMshrHits::total        79566                       # number of overall MSHR hits (Count)
system.cpu.dcache.demandMshrMisses::cpu.data        13455                       # number of demand (read+write) MSHR misses (Count)
system.cpu.dcache.demandMshrMisses::total        13455                       # number of demand (read+write) MSHR misses (Count)
system.cpu.dcache.overallMshrMisses::cpu.data        13455                       # number of overall MSHR misses (Count)
system.cpu.dcache.overallMshrMisses::total        13455                       # number of overall MSHR misses (Count)
system.cpu.dcache.overallMshrUncacheable::cpu.data            2                       # number of overall MSHR uncacheable misses (Count)
system.cpu.dcache.overallMshrUncacheable::total            2                       # number of overall MSHR uncacheable misses (Count)
system.cpu.dcache.demandMshrMissLatency::cpu.data    713734448                       # number of demand (read+write) MSHR miss ticks (Tick)
system.cpu.dcache.demandMshrMissLatency::total    713734448                       # number of demand (read+write) MSHR miss ticks (Tick)
system.cpu.dcache.overallMshrMissLatency::cpu.data    713734448                       # number of overall MSHR miss ticks (Tick)
system.cpu.dcache.overallMshrMissLatency::total    713734448                       # number of overall MSHR miss ticks (Tick)
system.cpu.dcache.demandMshrMissRate::cpu.data     0.003272                       # mshr miss ratio for demand accesses (Ratio)
system.cpu.dcache.demandMshrMissRate::total     0.003272                       # mshr miss ratio for demand accesses (Ratio)
system.cpu.dcache.overallMshrMissRate::cpu.data     0.003272                       # mshr miss ratio for overall accesses (Ratio)
system.cpu.dcache.overallMshrMissRate::total     0.003272                       # mshr miss ratio for overall accesses (Ratio)
system.cpu.dcache.demandAvgMshrMissLatency::cpu.data 53046.038499                       # average overall mshr miss latency ((Tick/Count))
system.cpu.dcache.demandAvgMshrMissLatency::total 53046.038499                       # average overall mshr miss latency ((Tick/Count))
system.cpu.dcache.overallAvgMshrMissLatency::cpu.data 53046.038499                       # average overall mshr miss latency ((Tick/Count))
system.cpu.dcache.overallAvgMshrMissLatency::total 53046.038499                       # average overall mshr miss latency ((Tick/Count))
system.cpu.dcache.replacements                  11407                       # number of replacements (Count)
system.cpu.dcache.ReadReq.hits::cpu.data      2365544                       # number of ReadReq hits (Count)
system.cpu.dcache.ReadReq.hits::total         2365544                       # number of ReadReq hits (Count)
system.cpu.dcache.ReadReq.misses::cpu.data        79439                       # number of ReadReq misses (Count)
system.cpu.dcache.ReadReq.misses::total         79439                       # number of ReadReq misses (Count)
system.cpu.dcache.ReadReq.missLatency::cpu.data   4230487500                       # number of ReadReq miss ticks (Tick)
system.cpu.dcache.ReadReq.missLatency::total   4230487500                       # number of ReadReq miss ticks (Tick)
system.cpu.dcache.ReadReq.missLatencyDist::samples        79439                       # number of ReadReq miss ticks histogram (Tick)
system.cpu.dcache.ReadReq.missLatencyDist::mean   106.509082                       # number of ReadReq miss ticks histogram (Tick)
system.cpu.dcache.ReadReq.missLatencyDist::stdev    80.639465                       # number of ReadReq miss ticks histogram (Tick)
system.cpu.dcache.ReadReq.missLatencyDist::0-9          567      0.71%      0.71% # number of ReadReq miss ticks histogram (Tick)
system.cpu.dcache.ReadReq.missLatencyDist::10-19         4389      5.52%      6.24% # number of ReadReq miss ticks histogram (Tick)
system.cpu.dcache.ReadReq.missLatencyDist::20-29         6706      8.44%     14.68% # number of ReadReq miss ticks histogram (Tick)
system.cpu.dcache.ReadReq.missLatencyDist::30-39          391      0.49%     15.17% # number of ReadReq miss ticks histogram (Tick)
system.cpu.dcache.ReadReq.missLatencyDist::40-49          413      0.52%     15.69% # number of ReadReq miss ticks histogram (Tick)
system.cpu.dcache.ReadReq.missLatencyDist::50-59          964      1.21%     16.91% # number of ReadReq miss ticks histogram (Tick)
system.cpu.dcache.ReadReq.missLatencyDist::60-69          976      1.23%     18.13% # number of ReadReq miss ticks histogram (Tick)
system.cpu.dcache.ReadReq.missLatencyDist::70-79          789      0.99%     19.13% # number of ReadReq miss ticks histogram (Tick)
system.cpu.dcache.ReadReq.missLatencyDist::80-89          742      0.93%     20.06% # number of ReadReq miss ticks histogram (Tick)
system.cpu.dcache.ReadReq.missLatencyDist::90-99         6067      7.64%     27.70% # number of ReadReq miss ticks histogram (Tick)
system.cpu.dcache.ReadReq.missLatencyDist::100-109        15179     19.11%     46.81% # number of ReadReq miss ticks histogram (Tick)
system.cpu.dcache.ReadReq.missLatencyDist::110-119        22654     28.52%     75.32% # number of ReadReq miss ticks histogram (Tick)
system.cpu.dcache.ReadReq.missLatencyDist::120-129        11005     13.85%     89.18% # number of ReadReq miss ticks histogram (Tick)
system.cpu.dcache.ReadReq.missLatencyDist::130-139         1467      1.85%     91.02% # number of ReadReq miss ticks histogram (Tick)
system.cpu.dcache.ReadReq.missLatencyDist::140-149         3619      4.56%     95.58% # number of ReadReq miss ticks histogram (Tick)
system.cpu.dcache.ReadReq.missLatencyDist::150-159          833      1.05%     96.63% # number of ReadReq miss ticks histogram (Tick)
system.cpu.dcache.ReadReq.missLatencyDist::160-169          364      0.46%     97.09% # number of ReadReq miss ticks histogram (Tick)
system.cpu.dcache.ReadReq.missLatencyDist::170-179          775      0.98%     98.06% # number of ReadReq miss ticks histogram (Tick)
system.cpu.dcache.ReadReq.missLatencyDist::180-189          305      0.38%     98.45% # number of ReadReq miss ticks histogram (Tick)
system.cpu.dcache.ReadReq.missLatencyDist::190-199          108      0.14%     98.58% # number of ReadReq miss ticks histogram (Tick)
system.cpu.dcache.ReadReq.missLatencyDist::200-209           48      0.06%     98.64% # number of ReadReq miss ticks histogram (Tick)
system.cpu.dcache.ReadReq.missLatencyDist::210-219           21      0.03%     98.67% # number of ReadReq miss ticks histogram (Tick)
system.cpu.dcache.ReadReq.missLatencyDist::220-229           16      0.02%     98.69% # number of ReadReq miss ticks histogram (Tick)
system.cpu.dcache.ReadReq.missLatencyDist::230-239           28      0.04%     98.72% # number of ReadReq miss ticks histogram (Tick)
system.cpu.dcache.ReadReq.missLatencyDist::240-249           31      0.04%     98.76% # number of ReadReq miss ticks histogram (Tick)
system.cpu.dcache.ReadReq.missLatencyDist::250-259           14      0.02%     98.78% # number of ReadReq miss ticks histogram (Tick)
system.cpu.dcache.ReadReq.missLatencyDist::260-269           11      0.01%     98.80% # number of ReadReq miss ticks histogram (Tick)
system.cpu.dcache.ReadReq.missLatencyDist::270-279           17      0.02%     98.82% # number of ReadReq miss ticks histogram (Tick)
system.cpu.dcache.ReadReq.missLatencyDist::280-289            4      0.01%     98.82% # number of ReadReq miss ticks histogram (Tick)
system.cpu.dcache.ReadReq.missLatencyDist::290-299            2      0.00%     98.82% # number of ReadReq miss ticks histogram (Tick)
system.cpu.dcache.ReadReq.missLatencyDist::300-309           21      0.03%     98.85% # number of ReadReq miss ticks histogram (Tick)
system.cpu.dcache.ReadReq.missLatencyDist::310-319           10      0.01%     98.86% # number of ReadReq miss ticks histogram (Tick)
system.cpu.dcache.ReadReq.missLatencyDist::320-329            2      0.00%     98.87% # number of ReadReq miss ticks histogram (Tick)
system.cpu.dcache.ReadReq.missLatencyDist::340-349            1      0.00%     98.87% # number of ReadReq miss ticks histogram (Tick)
system.cpu.dcache.ReadReq.missLatencyDist::350-359            1      0.00%     98.87% # number of ReadReq miss ticks histogram (Tick)
system.cpu.dcache.ReadReq.missLatencyDist::360-369            4      0.01%     98.87% # number of ReadReq miss ticks histogram (Tick)
system.cpu.dcache.ReadReq.missLatencyDist::370-379            4      0.01%     98.88% # number of ReadReq miss ticks histogram (Tick)
system.cpu.dcache.ReadReq.missLatencyDist::380-389            1      0.00%     98.88% # number of ReadReq miss ticks histogram (Tick)
system.cpu.dcache.ReadReq.missLatencyDist::390-399            1      0.00%     98.88% # number of ReadReq miss ticks histogram (Tick)
system.cpu.dcache.ReadReq.missLatencyDist::420-429            2      0.00%     98.88% # number of ReadReq miss ticks histogram (Tick)
system.cpu.dcache.ReadReq.missLatencyDist::440-449            1      0.00%     98.88% # number of ReadReq miss ticks histogram (Tick)
system.cpu.dcache.ReadReq.missLatencyDist::450-459            2      0.00%     98.89% # number of ReadReq miss ticks histogram (Tick)
system.cpu.dcache.ReadReq.missLatencyDist::510-519            1      0.00%     98.89% # number of ReadReq miss ticks histogram (Tick)
system.cpu.dcache.ReadReq.missLatencyDist::520-529            2      0.00%     98.89% # number of ReadReq miss ticks histogram (Tick)
system.cpu.dcache.ReadReq.missLatencyDist::530-539            5      0.01%     98.90% # number of ReadReq miss ticks histogram (Tick)
system.cpu.dcache.ReadReq.missLatencyDist::540-549            7      0.01%     98.91% # number of ReadReq miss ticks histogram (Tick)
system.cpu.dcache.ReadReq.missLatencyDist::550-559            4      0.01%     98.91% # number of ReadReq miss ticks histogram (Tick)
system.cpu.dcache.ReadReq.missLatencyDist::570-579            2      0.00%     98.91% # number of ReadReq miss ticks histogram (Tick)
system.cpu.dcache.ReadReq.missLatencyDist::590-599            3      0.00%     98.92% # number of ReadReq miss ticks histogram (Tick)
system.cpu.dcache.ReadReq.missLatencyDist::600-609            4      0.01%     98.92% # number of ReadReq miss ticks histogram (Tick)
system.cpu.dcache.ReadReq.missLatencyDist::610-619            8      0.01%     98.93% # number of ReadReq miss ticks histogram (Tick)
system.cpu.dcache.ReadReq.missLatencyDist::620-629           11      0.01%     98.95% # number of ReadReq miss ticks histogram (Tick)
system.cpu.dcache.ReadReq.missLatencyDist::630-639            9      0.01%     98.96% # number of ReadReq miss ticks histogram (Tick)
system.cpu.dcache.ReadReq.missLatencyDist::640-649           10      0.01%     98.97% # number of ReadReq miss ticks histogram (Tick)
system.cpu.dcache.ReadReq.missLatencyDist::650-659           14      0.02%     98.99% # number of ReadReq miss ticks histogram (Tick)
system.cpu.dcache.ReadReq.missLatencyDist::660-669           30      0.04%     99.03% # number of ReadReq miss ticks histogram (Tick)
system.cpu.dcache.ReadReq.missLatencyDist::670-679           33      0.04%     99.07% # number of ReadReq miss ticks histogram (Tick)
system.cpu.dcache.ReadReq.missLatencyDist::680-689           21      0.03%     99.09% # number of ReadReq miss ticks histogram (Tick)
system.cpu.dcache.ReadReq.missLatencyDist::690-699           11      0.01%     99.11% # number of ReadReq miss ticks histogram (Tick)
system.cpu.dcache.ReadReq.missLatencyDist::700-709           18      0.02%     99.13% # number of ReadReq miss ticks histogram (Tick)
system.cpu.dcache.ReadReq.missLatencyDist::710-719           33      0.04%     99.17% # number of ReadReq miss ticks histogram (Tick)
system.cpu.dcache.ReadReq.missLatencyDist::720-729           27      0.03%     99.21% # number of ReadReq miss ticks histogram (Tick)
system.cpu.dcache.ReadReq.missLatencyDist::730-739           19      0.02%     99.23% # number of ReadReq miss ticks histogram (Tick)
system.cpu.dcache.ReadReq.missLatencyDist::740-749           31      0.04%     99.27% # number of ReadReq miss ticks histogram (Tick)
system.cpu.dcache.ReadReq.missLatencyDist::750-759           44      0.06%     99.32% # number of ReadReq miss ticks histogram (Tick)
system.cpu.dcache.ReadReq.missLatencyDist::760-769           43      0.05%     99.38% # number of ReadReq miss ticks histogram (Tick)
system.cpu.dcache.ReadReq.missLatencyDist::770-779           44      0.06%     99.43% # number of ReadReq miss ticks histogram (Tick)
system.cpu.dcache.ReadReq.missLatencyDist::780-789           58      0.07%     99.51% # number of ReadReq miss ticks histogram (Tick)
system.cpu.dcache.ReadReq.missLatencyDist::790-799           53      0.07%     99.57% # number of ReadReq miss ticks histogram (Tick)
system.cpu.dcache.ReadReq.missLatencyDist::800-809           39      0.05%     99.62% # number of ReadReq miss ticks histogram (Tick)
system.cpu.dcache.ReadReq.missLatencyDist::810-819           47      0.06%     99.68% # number of ReadReq miss ticks histogram (Tick)
system.cpu.dcache.ReadReq.missLatencyDist::820-829           51      0.06%     99.75% # number of ReadReq miss ticks histogram (Tick)
system.cpu.dcache.ReadReq.missLatencyDist::830-839           40      0.05%     99.80% # number of ReadReq miss ticks histogram (Tick)
system.cpu.dcache.ReadReq.missLatencyDist::840-849           44      0.06%     99.85% # number of ReadReq miss ticks histogram (Tick)
system.cpu.dcache.ReadReq.missLatencyDist::850-859           42      0.05%     99.90% # number of ReadReq miss ticks histogram (Tick)
system.cpu.dcache.ReadReq.missLatencyDist::860-869           41      0.05%     99.96% # number of ReadReq miss ticks histogram (Tick)
system.cpu.dcache.ReadReq.missLatencyDist::870-879           26      0.03%     99.99% # number of ReadReq miss ticks histogram (Tick)
system.cpu.dcache.ReadReq.missLatencyDist::880-889            8      0.01%    100.00% # number of ReadReq miss ticks histogram (Tick)
system.cpu.dcache.ReadReq.missLatencyDist::890-899            1      0.00%    100.00% # number of ReadReq miss ticks histogram (Tick)
system.cpu.dcache.ReadReq.missLatencyDist::min_value            5                       # number of ReadReq miss ticks histogram (Tick)
system.cpu.dcache.ReadReq.missLatencyDist::max_value          890                       # number of ReadReq miss ticks histogram (Tick)
system.cpu.dcache.ReadReq.missLatencyDist::total        79439                       # number of ReadReq miss ticks histogram (Tick)
system.cpu.dcache.ReadReq.accesses::cpu.data      2444983                       # number of ReadReq accesses(hits+misses) (Count)
system.cpu.dcache.ReadReq.accesses::total      2444983                       # number of ReadReq accesses(hits+misses) (Count)
system.cpu.dcache.ReadReq.missRate::cpu.data     0.032491                       # miss rate for ReadReq accesses (Ratio)
system.cpu.dcache.ReadReq.missRate::total     0.032491                       # miss rate for ReadReq accesses (Ratio)
system.cpu.dcache.ReadReq.avgMissLatency::cpu.data 53254.541220                       # average ReadReq miss latency ((Tick/Count))
system.cpu.dcache.ReadReq.avgMissLatency::total 53254.541220                       # average ReadReq miss latency ((Tick/Count))
system.cpu.dcache.ReadReq.mshrHits::cpu.data        67936                       # number of ReadReq MSHR hits (Count)
system.cpu.dcache.ReadReq.mshrHits::total        67936                       # number of ReadReq MSHR hits (Count)
system.cpu.dcache.ReadReq.mshrMisses::cpu.data        11503                       # number of ReadReq MSHR misses (Count)
system.cpu.dcache.ReadReq.mshrMisses::total        11503                       # number of ReadReq MSHR misses (Count)
system.cpu.dcache.ReadReq.mshrMissLatency::cpu.data    628619500                       # number of ReadReq MSHR miss ticks (Tick)
system.cpu.dcache.ReadReq.mshrMissLatency::total    628619500                       # number of ReadReq MSHR miss ticks (Tick)
system.cpu.dcache.ReadReq.mshrMissRate::cpu.data     0.004705                       # mshr miss rate for ReadReq accesses (Ratio)
system.cpu.dcache.ReadReq.mshrMissRate::total     0.004705                       # mshr miss rate for ReadReq accesses (Ratio)
system.cpu.dcache.ReadReq.avgMshrMissLatency::cpu.data 54648.309137                       # average ReadReq mshr miss latency ((Tick/Count))
system.cpu.dcache.ReadReq.avgMshrMissLatency::total 54648.309137                       # average ReadReq mshr miss latency ((Tick/Count))
system.cpu.dcache.WriteReq.hits::cpu.data      1653496                       # number of WriteReq hits (Count)
system.cpu.dcache.WriteReq.hits::total        1653496                       # number of WriteReq hits (Count)
system.cpu.dcache.WriteReq.misses::cpu.data        13582                       # number of WriteReq misses (Count)
system.cpu.dcache.WriteReq.misses::total        13582                       # number of WriteReq misses (Count)
system.cpu.dcache.WriteReq.missLatency::cpu.data    528251433                       # number of WriteReq miss ticks (Tick)
system.cpu.dcache.WriteReq.missLatency::total    528251433                       # number of WriteReq miss ticks (Tick)
system.cpu.dcache.WriteReq.missLatencyDist::samples        13582                       # number of WriteReq miss ticks histogram (Tick)
system.cpu.dcache.WriteReq.missLatencyDist::mean    77.782064                       # number of WriteReq miss ticks histogram (Tick)
system.cpu.dcache.WriteReq.missLatencyDist::stdev    85.449674                       # number of WriteReq miss ticks histogram (Tick)
system.cpu.dcache.WriteReq.missLatencyDist::0-9           74      0.54%      0.54% # number of WriteReq miss ticks histogram (Tick)
system.cpu.dcache.WriteReq.missLatencyDist::10-19         2941     21.65%     22.20% # number of WriteReq miss ticks histogram (Tick)
system.cpu.dcache.WriteReq.missLatencyDist::20-29         3094     22.78%     44.98% # number of WriteReq miss ticks histogram (Tick)
system.cpu.dcache.WriteReq.missLatencyDist::30-39          138      1.02%     45.99% # number of WriteReq miss ticks histogram (Tick)
system.cpu.dcache.WriteReq.missLatencyDist::40-49          124      0.91%     46.91% # number of WriteReq miss ticks histogram (Tick)
system.cpu.dcache.WriteReq.missLatencyDist::50-59           95      0.70%     47.61% # number of WriteReq miss ticks histogram (Tick)
system.cpu.dcache.WriteReq.missLatencyDist::60-69          422      3.11%     50.71% # number of WriteReq miss ticks histogram (Tick)
system.cpu.dcache.WriteReq.missLatencyDist::70-79          365      2.69%     53.40% # number of WriteReq miss ticks histogram (Tick)
system.cpu.dcache.WriteReq.missLatencyDist::80-89          373      2.75%     56.15% # number of WriteReq miss ticks histogram (Tick)
system.cpu.dcache.WriteReq.missLatencyDist::90-99          585      4.31%     60.46% # number of WriteReq miss ticks histogram (Tick)
system.cpu.dcache.WriteReq.missLatencyDist::100-109          600      4.42%     64.87% # number of WriteReq miss ticks histogram (Tick)
system.cpu.dcache.WriteReq.missLatencyDist::110-119         1471     10.83%     75.70% # number of WriteReq miss ticks histogram (Tick)
system.cpu.dcache.WriteReq.missLatencyDist::120-129         1575     11.60%     87.30% # number of WriteReq miss ticks histogram (Tick)
system.cpu.dcache.WriteReq.missLatencyDist::130-139          338      2.49%     89.79% # number of WriteReq miss ticks histogram (Tick)
system.cpu.dcache.WriteReq.missLatencyDist::140-149          519      3.82%     93.61% # number of WriteReq miss ticks histogram (Tick)
system.cpu.dcache.WriteReq.missLatencyDist::150-159          172      1.27%     94.88% # number of WriteReq miss ticks histogram (Tick)
system.cpu.dcache.WriteReq.missLatencyDist::160-169          113      0.83%     95.71% # number of WriteReq miss ticks histogram (Tick)
system.cpu.dcache.WriteReq.missLatencyDist::170-179          153      1.13%     96.83% # number of WriteReq miss ticks histogram (Tick)
system.cpu.dcache.WriteReq.missLatencyDist::180-189           98      0.72%     97.56% # number of WriteReq miss ticks histogram (Tick)
system.cpu.dcache.WriteReq.missLatencyDist::190-199           27      0.20%     97.75% # number of WriteReq miss ticks histogram (Tick)
system.cpu.dcache.WriteReq.missLatencyDist::200-209           20      0.15%     97.90% # number of WriteReq miss ticks histogram (Tick)
system.cpu.dcache.WriteReq.missLatencyDist::210-219           42      0.31%     98.21% # number of WriteReq miss ticks histogram (Tick)
system.cpu.dcache.WriteReq.missLatencyDist::220-229           15      0.11%     98.32% # number of WriteReq miss ticks histogram (Tick)
system.cpu.dcache.WriteReq.missLatencyDist::230-239           13      0.10%     98.42% # number of WriteReq miss ticks histogram (Tick)
system.cpu.dcache.WriteReq.missLatencyDist::240-249            3      0.02%     98.44% # number of WriteReq miss ticks histogram (Tick)
system.cpu.dcache.WriteReq.missLatencyDist::250-259            9      0.07%     98.51% # number of WriteReq miss ticks histogram (Tick)
system.cpu.dcache.WriteReq.missLatencyDist::260-269            5      0.04%     98.54% # number of WriteReq miss ticks histogram (Tick)
system.cpu.dcache.WriteReq.missLatencyDist::280-289            2      0.01%     98.56% # number of WriteReq miss ticks histogram (Tick)
system.cpu.dcache.WriteReq.missLatencyDist::290-299           10      0.07%     98.63% # number of WriteReq miss ticks histogram (Tick)
system.cpu.dcache.WriteReq.missLatencyDist::300-309           13      0.10%     98.73% # number of WriteReq miss ticks histogram (Tick)
system.cpu.dcache.WriteReq.missLatencyDist::310-319            8      0.06%     98.79% # number of WriteReq miss ticks histogram (Tick)
system.cpu.dcache.WriteReq.missLatencyDist::320-329           13      0.10%     98.88% # number of WriteReq miss ticks histogram (Tick)
system.cpu.dcache.WriteReq.missLatencyDist::330-339            8      0.06%     98.94% # number of WriteReq miss ticks histogram (Tick)
system.cpu.dcache.WriteReq.missLatencyDist::340-349           10      0.07%     99.01% # number of WriteReq miss ticks histogram (Tick)
system.cpu.dcache.WriteReq.missLatencyDist::350-359           11      0.08%     99.09% # number of WriteReq miss ticks histogram (Tick)
system.cpu.dcache.WriteReq.missLatencyDist::430-439            2      0.01%     99.11% # number of WriteReq miss ticks histogram (Tick)
system.cpu.dcache.WriteReq.missLatencyDist::470-479            3      0.02%     99.13% # number of WriteReq miss ticks histogram (Tick)
system.cpu.dcache.WriteReq.missLatencyDist::480-489            2      0.01%     99.15% # number of WriteReq miss ticks histogram (Tick)
system.cpu.dcache.WriteReq.missLatencyDist::490-499            1      0.01%     99.15% # number of WriteReq miss ticks histogram (Tick)
system.cpu.dcache.WriteReq.missLatencyDist::560-569            1      0.01%     99.16% # number of WriteReq miss ticks histogram (Tick)
system.cpu.dcache.WriteReq.missLatencyDist::570-579            1      0.01%     99.17% # number of WriteReq miss ticks histogram (Tick)
system.cpu.dcache.WriteReq.missLatencyDist::590-599            1      0.01%     99.18% # number of WriteReq miss ticks histogram (Tick)
system.cpu.dcache.WriteReq.missLatencyDist::600-609            1      0.01%     99.18% # number of WriteReq miss ticks histogram (Tick)
system.cpu.dcache.WriteReq.missLatencyDist::630-639            1      0.01%     99.19% # number of WriteReq miss ticks histogram (Tick)
system.cpu.dcache.WriteReq.missLatencyDist::640-649            1      0.01%     99.20% # number of WriteReq miss ticks histogram (Tick)
system.cpu.dcache.WriteReq.missLatencyDist::680-689            3      0.02%     99.22% # number of WriteReq miss ticks histogram (Tick)
system.cpu.dcache.WriteReq.missLatencyDist::690-699            3      0.02%     99.24% # number of WriteReq miss ticks histogram (Tick)
system.cpu.dcache.WriteReq.missLatencyDist::700-709            2      0.01%     99.26% # number of WriteReq miss ticks histogram (Tick)
system.cpu.dcache.WriteReq.missLatencyDist::710-719            2      0.01%     99.27% # number of WriteReq miss ticks histogram (Tick)
system.cpu.dcache.WriteReq.missLatencyDist::730-739            2      0.01%     99.29% # number of WriteReq miss ticks histogram (Tick)
system.cpu.dcache.WriteReq.missLatencyDist::740-749            5      0.04%     99.32% # number of WriteReq miss ticks histogram (Tick)
system.cpu.dcache.WriteReq.missLatencyDist::750-759           10      0.07%     99.40% # number of WriteReq miss ticks histogram (Tick)
system.cpu.dcache.WriteReq.missLatencyDist::760-769           12      0.09%     99.48% # number of WriteReq miss ticks histogram (Tick)
system.cpu.dcache.WriteReq.missLatencyDist::770-779           14      0.10%     99.59% # number of WriteReq miss ticks histogram (Tick)
system.cpu.dcache.WriteReq.missLatencyDist::780-789           12      0.09%     99.68% # number of WriteReq miss ticks histogram (Tick)
system.cpu.dcache.WriteReq.missLatencyDist::790-799            9      0.07%     99.74% # number of WriteReq miss ticks histogram (Tick)
system.cpu.dcache.WriteReq.missLatencyDist::800-809           11      0.08%     99.82% # number of WriteReq miss ticks histogram (Tick)
system.cpu.dcache.WriteReq.missLatencyDist::810-819            9      0.07%     99.89% # number of WriteReq miss ticks histogram (Tick)
system.cpu.dcache.WriteReq.missLatencyDist::820-829            6      0.04%     99.93% # number of WriteReq miss ticks histogram (Tick)
system.cpu.dcache.WriteReq.missLatencyDist::830-839            1      0.01%     99.94% # number of WriteReq miss ticks histogram (Tick)
system.cpu.dcache.WriteReq.missLatencyDist::840-849            1      0.01%     99.95% # number of WriteReq miss ticks histogram (Tick)
system.cpu.dcache.WriteReq.missLatencyDist::850-859            2      0.01%     99.96% # number of WriteReq miss ticks histogram (Tick)
system.cpu.dcache.WriteReq.missLatencyDist::860-869            4      0.03%     99.99% # number of WriteReq miss ticks histogram (Tick)
system.cpu.dcache.WriteReq.missLatencyDist::870-879            1      0.01%    100.00% # number of WriteReq miss ticks histogram (Tick)
system.cpu.dcache.WriteReq.missLatencyDist::min_value            5                       # number of WriteReq miss ticks histogram (Tick)
system.cpu.dcache.WriteReq.missLatencyDist::max_value          875                       # number of WriteReq miss ticks histogram (Tick)
system.cpu.dcache.WriteReq.missLatencyDist::total        13582                       # number of WriteReq miss ticks histogram (Tick)
system.cpu.dcache.WriteReq.accesses::cpu.data      1667078                       # number of WriteReq accesses(hits+misses) (Count)
system.cpu.dcache.WriteReq.accesses::total      1667078                       # number of WriteReq accesses(hits+misses) (Count)
system.cpu.dcache.WriteReq.missRate::cpu.data     0.008147                       # miss rate for WriteReq accesses (Ratio)
system.cpu.dcache.WriteReq.missRate::total     0.008147                       # miss rate for WriteReq accesses (Ratio)
system.cpu.dcache.WriteReq.avgMissLatency::cpu.data 38893.493815                       # average WriteReq miss latency ((Tick/Count))
system.cpu.dcache.WriteReq.avgMissLatency::total 38893.493815                       # average WriteReq miss latency ((Tick/Count))
system.cpu.dcache.WriteReq.mshrHits::cpu.data        11630                       # number of WriteReq MSHR hits (Count)
system.cpu.dcache.WriteReq.mshrHits::total        11630                       # number of WriteReq MSHR hits (Count)
system.cpu.dcache.WriteReq.mshrMisses::cpu.data         1952                       # number of WriteReq MSHR misses (Count)
system.cpu.dcache.WriteReq.mshrMisses::total         1952                       # number of WriteReq MSHR misses (Count)
system.cpu.dcache.WriteReq.mshrUncacheable::cpu.data            2                       # number of WriteReq MSHR uncacheable (Count)
system.cpu.dcache.WriteReq.mshrUncacheable::total            2                       # number of WriteReq MSHR uncacheable (Count)
system.cpu.dcache.WriteReq.mshrMissLatency::cpu.data     85114948                       # number of WriteReq MSHR miss ticks (Tick)
system.cpu.dcache.WriteReq.mshrMissLatency::total     85114948                       # number of WriteReq MSHR miss ticks (Tick)
system.cpu.dcache.WriteReq.mshrMissRate::cpu.data     0.001171                       # mshr miss rate for WriteReq accesses (Ratio)
system.cpu.dcache.WriteReq.mshrMissRate::total     0.001171                       # mshr miss rate for WriteReq accesses (Ratio)
system.cpu.dcache.WriteReq.avgMshrMissLatency::cpu.data 43603.969262                       # average WriteReq mshr miss latency ((Tick/Count))
system.cpu.dcache.WriteReq.avgMshrMissLatency::total 43603.969262                       # average WriteReq mshr miss latency ((Tick/Count))
system.cpu.dcache.power_state.pwrStateResidencyTicks::UNDEFINED   1750602500                       # Cumulative time (in ticks) in various power states (Tick)
system.cpu.dcache.tags.tagsInUse          1956.950732                       # Average ticks per tags in use ((Tick/Count))
system.cpu.dcache.tags.totalRefs               690094                       # Total number of references to valid blocks. (Count)
system.cpu.dcache.tags.sampledRefs              11407                       # Sample count of references to valid blocks. (Count)
system.cpu.dcache.tags.avgRefs              60.497414                       # Average number of references to valid blocks. ((Count/Count))
system.cpu.dcache.tags.warmupTick              166000                       # The tick when the warmup percentage was hit. (Tick)
system.cpu.dcache.tags.occupancies::cpu.data  1956.950732                       # Average occupied blocks per tick, per requestor ((Count/Tick))
system.cpu.dcache.tags.avgOccs::cpu.data     0.955542                       # Average percentage of cache occupancy ((Ratio/Tick))
system.cpu.dcache.tags.avgOccs::total        0.955542                       # Average percentage of cache occupancy ((Ratio/Tick))
system.cpu.dcache.tags.occupanciesTaskId::1024         2048                       # Occupied blocks per task id (Count)
system.cpu.dcache.tags.ageTaskId_1024::1            1                       # Occupied blocks per task id, per block age (Count)
system.cpu.dcache.tags.ageTaskId_1024::2         1949                       # Occupied blocks per task id, per block age (Count)
system.cpu.dcache.tags.ageTaskId_1024::3           98                       # Occupied blocks per task id, per block age (Count)
[...]
system.mem_ctrls.dram.totQLat                  269040                       # Total ticks spent queuing (Tick)
system.mem_ctrls.dram.totBusLat                 93296                       # Total ticks spent in databus transfers (Tick)
system.mem_ctrls.dram.totMemAccLat             758816                       # Total ticks spent from burst creation until serviced by the DRAM (Tick)
system.mem_ctrls.dram.avgQLat                 9608.57                       # Average queueing delay per DRAM burst ((Tick/Count))
system.mem_ctrls.dram.avgBusLat               3332.00                       # Average bus latency per DRAM burst ((Tick/Count))
system.mem_ctrls.dram.avgMemAccLat           27100.57                       # Average memory access latency per DRAM burst ((Tick/Count))
system.mem_ctrls.dram.readRowHits                   9                       # Number of row buffer hits during reads (Count)
system.mem_ctrls.dram.writeRowHits                  0                       # Number of row buffer hits during writes (Count)
system.mem_ctrls.dram.readRowHitRate            32.14                       # Row buffer hit rate for reads (Ratio)
system.mem_ctrls.dram.writeRowHitRate             nan                       # Row buffer hit rate for writes (Ratio)
system.mem_ctrls.dram.bytesPerActivate::samples           19                       # Bytes accessed per row activation (Byte)
system.mem_ctrls.dram.bytesPerActivate::mean    94.315789                       # Bytes accessed per row activation (Byte)
system.mem_ctrls.dram.bytesPerActivate::gmean    85.689862                       # Bytes accessed per row activation (Byte)
system.mem_ctrls.dram.bytesPerActivate::stdev    49.429021                       # Bytes accessed per row activation (Byte)
system.mem_ctrls.dram.bytesPerActivate::64-95           12     63.16%     63.16% # Bytes accessed per row activation (Byte)
system.mem_ctrls.dram.bytesPerActivate::128-159            6     31.58%     94.74% # Bytes accessed per row activation (Byte)
system.mem_ctrls.dram.bytesPerActivate::256-287            1      5.26%    100.00% # Bytes accessed per row activation (Byte)
system.mem_ctrls.dram.bytesPerActivate::total           19                       # Bytes accessed per row activation (Byte)
system.mem_ctrls.dram.bytesRead                  1792                       # Total bytes read (Byte)
system.mem_ctrls.dram.bytesWritten                  0                       # Total bytes written (Byte)
system.mem_ctrls.dram.avgRdBW                1.747983                       # Average DRAM read bandwidth in MiBytes/s ((Byte/Second))
system.mem_ctrls.dram.avgWrBW                       0                       # Average DRAM write bandwidth in MiBytes/s ((Byte/Second))
system.mem_ctrls.dram.peakBW                 19207.00                       # Theoretical peak bandwidth in MiByte/s ((Byte/Second))
system.mem_ctrls.dram.busUtil                    0.01                       # Data bus utilization in percentage (Ratio)
system.mem_ctrls.dram.busUtilRead                0.01                       # Data bus utilization in percentage for reads (Ratio)
system.mem_ctrls.dram.busUtilWrite               0.00                       # Data bus utilization in percentage for writes (Ratio)
system.mem_ctrls.dram.pageHitRate               32.14                       # Row buffer hit rate, read and write combined (Ratio)
system.mem_ctrls.dram.power_state.pwrStateResidencyTicks::UNDEFINED   1025181500                       # Cumulative time (in ticks) in various power states (Tick)
system.mem_ctrls.dram.rank0.actEnergy    12475.008000                       # Energy for activate commands per rank (pJ) (Joule)
system.mem_ctrls.dram.rank0.preEnergy    16585.363200                       # Energy for precharge commands per rank (pJ) (Joule)
system.mem_ctrls.dram.rank0.readEnergy   16825.267200                       # Energy for read commands per rank (pJ) (Joule)
system.mem_ctrls.dram.rank0.writeEnergy             0                       # Energy for write commands per rank (pJ) (Joule)
system.mem_ctrls.dram.rank0.refreshEnergy 182869846.790401                       # Energy for refresh commands per rank (pJ) (Joule)
system.mem_ctrls.dram.rank0.actBackEnergy 48707901.043200                       # Energy for active background per rank (pJ) (Joule)
system.mem_ctrls.dram.rank0.preBackEnergy 631813157.606400                       # Energy for precharge background per rank (pJ) (Joule)
system.mem_ctrls.dram.rank0.actPowerDownEnergy            0                       # Energy for active power-down per rank (pJ) (Joule)
system.mem_ctrls.dram.rank0.prePowerDownEnergy            0                       # Energy for precharge power-down per rank (pJ) (Joule)
system.mem_ctrls.dram.rank0.selfRefreshEnergy            0                       # Energy for self refresh per rank (pJ) (Joule)
system.mem_ctrls.dram.rank0.totalEnergy  863436791.078399                       # Total energy per rank (pJ) (Joule)
system.mem_ctrls.dram.rank0.averagePower   842.228221                       # Core power per rank (mW) (Watt)
system.mem_ctrls.dram.rank0.totalIdleTime            0                       # Total Idle time Per DRAM Rank (Tick)
system.mem_ctrls.dram.rank0.pwrStateTime::IDLE    966017060                       # Time in different power states (Tick)
system.mem_ctrls.dram.rank0.pwrStateTime::REF     46200000                       # Time in different power states (Tick)
system.mem_ctrls.dram.rank0.pwrStateTime::SREF            0                       # Time in different power states (Tick)
system.mem_ctrls.dram.rank0.pwrStateTime::PRE_PDN            0                       # Time in different power states (Tick)
system.mem_ctrls.dram.rank0.pwrStateTime::ACT     12964440                       # Time in different power states (Tick)
system.mem_ctrls.dram.rank0.pwrStateTime::ACT_PDN            0                       # Time in different power states (Tick)
system.mem_ctrls.dram.rank1.actEnergy    46781.280000                       # Energy for activate commands per rank (pJ) (Joule)
system.mem_ctrls.dram.rank1.preEnergy    62195.112000                       # Energy for precharge commands per rank (pJ) (Joule)
system.mem_ctrls.dram.rank1.readEnergy   100951.603200                       # Energy for read commands per rank (pJ) (Joule)
system.mem_ctrls.dram.rank1.writeEnergy             0                       # Energy for write commands per rank (pJ) (Joule)
system.mem_ctrls.dram.rank1.refreshEnergy 182869846.790401                       # Energy for refresh commands per rank (pJ) (Joule)
system.mem_ctrls.dram.rank1.actBackEnergy 75875733.561600                       # Energy for active background per rank (pJ) (Joule)
system.mem_ctrls.dram.rank1.preBackEnergy 610938438.835200                       # Energy for precharge background per rank (pJ) (Joule)
system.mem_ctrls.dram.rank1.actPowerDownEnergy            0                       # Energy for active power-down per rank (pJ) (Joule)
system.mem_ctrls.dram.rank1.prePowerDownEnergy            0                       # Energy for precharge power-down per rank (pJ) (Joule)
system.mem_ctrls.dram.rank1.selfRefreshEnergy            0                       # Energy for self refresh per rank (pJ) (Joule)
system.mem_ctrls.dram.rank1.totalEnergy  869893947.182399                       # Total energy per rank (pJ) (Joule)
system.mem_ctrls.dram.rank1.averagePower   848.526770                       # Core power per rank (mW) (Watt)
system.mem_ctrls.dram.rank1.totalIdleTime            0                       # Total Idle time Per DRAM Rank (Tick)
system.mem_ctrls.dram.rank1.pwrStateTime::IDLE    933952800                       # Time in different power states (Tick)
system.mem_ctrls.dram.rank1.pwrStateTime::REF     46200000                       # Time in different power states (Tick)
system.mem_ctrls.dram.rank1.pwrStateTime::SREF            0                       # Time in different power states (Tick)
system.mem_ctrls.dram.rank1.pwrStateTime::PRE_PDN            0                       # Time in different power states (Tick)
system.mem_ctrls.dram.rank1.pwrStateTime::ACT     45028700                       # Time in different power states (Tick)
system.mem_ctrls.dram.rank1.pwrStateTime::ACT_PDN            0                       # Time in different power states (Tick)
system.mem_ctrls.power_state.pwrStateResidencyTicks::UNDEFINED   1025181500                       # Cumulative time (in ticks) in various power states (Tick)
system.membus.transDist::ReadResp                  28                       # Transaction distribution (Count)
system.membus.transDist::CleanEvict                11                       # Transaction distribution (Count)
system.membus.transDist::ReadCleanReq              28                       # Transaction distribution (Count)
system.membus.pktCount_system.l2.mem_side_port::system.mem_ctrls.port           67                       # Packet count per connected requestor and responder (Count)
system.membus.pktCount_system.l2.mem_side_port::total           67                       # Packet count per connected requestor and responder (Count)
system.membus.pktCount::total                      67                       # Packet count per connected requestor and responder (Count)
system.membus.pktSize_system.l2.mem_side_port::system.mem_ctrls.port         1792                       # Cumulative packet size per connected requestor and responder (Byte)
system.membus.pktSize_system.l2.mem_side_port::total         1792                       # Cumulative packet size per connected requestor and responder (Byte)
system.membus.pktSize::total                     1792                       # Cumulative packet size per connected requestor and responder (Byte)
system.membus.snoops                                0                       # Total snoops (Count)
system.membus.snoopTraffic                          0                       # Total snoop traffic (Byte)
system.membus.snoopFanout::samples                 28                       # Request fanout histogram (Count)
system.membus.snoopFanout::mean                     0                       # Request fanout histogram (Count)
system.membus.snoopFanout::stdev                    0                       # Request fanout histogram (Count)
system.membus.snoopFanout::underflows               0      0.00%      0.00% # Request fanout histogram (Count)
system.membus.snoopFanout::0                       28    100.00%    100.00% # Request fanout histogram (Count)
system.membus.snoopFanout::1                        0      0.00%    100.00% # Request fanout histogram (Count)
system.membus.snoopFanout::2                        0      0.00%    100.00% # Request fanout histogram (Count)
system.membus.snoopFanout::overflows                0      0.00%    100.00% # Request fanout histogram (Count)
system.membus.snoopFanout::min_value                0                       # Request fanout histogram (Count)
system.membus.snoopFanout::max_value                0                       # Request fanout histogram (Count)
system.membus.snoopFanout::total                   28                       # Request fanout histogram (Count)
system.membus.badaddr_responder.power_state.pwrStateResidencyTicks::UNDEFINED   1025181500                       # Cumulative time (in ticks) in various power states (Tick)
system.membus.power_state.pwrStateResidencyTicks::UNDEFINED   1025181500                       # Cumulative time (in ticks) in various power states (Tick)
system.membus.reqLayer1.occupancy               50500                       # Layer occupancy (ticks) (Tick)
system.membus.reqLayer1.utilization               0.0                       # Layer utilization (Ratio)
system.membus.respLayer2.occupancy             150836                       # Layer occupancy (ticks) (Tick)
system.membus.respLayer2.utilization              0.0                       # Layer utilization (Ratio)
system.membus.snoop_filter.totRequests             39                       # Total number of requests made to the snoop filter. (Count)
system.membus.snoop_filter.hitSingleRequests           22                       # Number of requests hitting in the snoop filter with a single holder of the requested data. (Count)
system.membus.snoop_filter.hitMultiRequests            0                       # Number of requests hitting in the snoop filter with multiple (>1) holders of the requested data. (Count)
system.membus.snoop_filter.totSnoops                0                       # Total number of snoops made to the snoop filter. (Count)
system.membus.snoop_filter.hitSingleSnoops            0                       # Number of snoops hitting in the snoop filter with a single holder of the requested data. (Count)
system.membus.snoop_filter.hitMultiSnoops            0                       # Number of snoops hitting in the snoop filter with multiple (>1) holders of the requested data. (Count)
system.mmcs.power_state.pwrStateResidencyTicks::UNDEFINED   1025181500                       # Cumulative time (in ticks) in various power states (Tick)
system.tol2bus.transDist::ReadResp                 36                       # Transaction distribution (Count)
system.tol2bus.transDist::WritebackDirty            4                       # Transaction distribution (Count)
system.tol2bus.transDist::WritebackClean            7                       # Transaction distribution (Count)
system.tol2bus.transDist::CleanEvict               22                       # Transaction distribution (Count)
system.tol2bus.transDist::ReadCleanReq              2                       # Transaction distribution (Count)
system.tol2bus.transDist::ReadSharedReq            34                       # Transaction distribution (Count)
system.tol2bus.pktCount_system.cpu.icache.mem_side_port::system.l2.cpu_side_port            4                       # Packet count per connected requestor and responder (Count)
system.tol2bus.pktCount_system.cpu.dcache.mem_side_port::system.l2.cpu_side_port           33                       # Packet count per connected requestor and responder (Count)
system.tol2bus.pktCount_system.cpu.itb_walker_cache.mem_side_port::system.l2.cpu_side_port           47                       # Packet count per connected requestor and responder (Count)
system.tol2bus.pktCount_system.cpu.dtb_walker_cache.mem_side_port::system.l2.cpu_side_port           21                       # Packet count per connected requestor and responder (Count)
system.tol2bus.pktCount::total                    105                       # Packet count per connected requestor and responder (Count)
system.tol2bus.pktSize_system.cpu.icache.mem_side_port::system.l2.cpu_side_port          128                       # Cumulative packet size per connected requestor and responder (Byte)
system.tol2bus.pktSize_system.cpu.dcache.mem_side_port::system.l2.cpu_side_port         1408                       # Cumulative packet size per connected requestor and responder (Byte)
system.tol2bus.pktSize_system.cpu.itb_walker_cache.mem_side_port::system.l2.cpu_side_port         1024                       # Cumulative packet size per connected requestor and responder (Byte)
system.tol2bus.pktSize_system.cpu.dtb_walker_cache.mem_side_port::system.l2.cpu_side_port          448                       # Cumulative packet size per connected requestor and responder (Byte)
system.tol2bus.pktSize::total                    3008                       # Cumulative packet size per connected requestor and responder (Byte)
system.tol2bus.snoops                               0                       # Total snoops (Count)
system.tol2bus.snoopTraffic                         0                       # Total snoop traffic (Byte)
system.tol2bus.snoopFanout::samples                36                       # Request fanout histogram (Count)
system.tol2bus.snoopFanout::mean             0.305556                       # Request fanout histogram (Count)
system.tol2bus.snoopFanout::stdev            0.467177                       # Request fanout histogram (Count)
system.tol2bus.snoopFanout::underflows              0      0.00%      0.00% # Request fanout histogram (Count)
system.tol2bus.snoopFanout::0                      25     69.44%     69.44% # Request fanout histogram (Count)
system.tol2bus.snoopFanout::1                      11     30.56%    100.00% # Request fanout histogram (Count)
system.tol2bus.snoopFanout::2                       0      0.00%    100.00% # Request fanout histogram (Count)
system.tol2bus.snoopFanout::3                       0      0.00%    100.00% # Request fanout histogram (Count)
system.tol2bus.snoopFanout::4                       0      0.00%    100.00% # Request fanout histogram (Count)
system.tol2bus.snoopFanout::overflows               0      0.00%    100.00% # Request fanout histogram (Count)
system.tol2bus.snoopFanout::min_value               0                       # Request fanout histogram (Count)
system.tol2bus.snoopFanout::max_value               1                       # Request fanout histogram (Count)
system.tol2bus.snoopFanout::total                  36                       # Request fanout histogram (Count)
system.tol2bus.power_state.pwrStateResidencyTicks::UNDEFINED   1025181500                       # Cumulative time (in ticks) in various power states (Tick)
system.tol2bus.reqLayer0.occupancy              40000                       # Layer occupancy (ticks) (Tick)
system.tol2bus.reqLayer0.utilization              0.0                       # Layer utilization (Ratio)
system.tol2bus.respLayer0.occupancy              2000                       # Layer occupancy (ticks) (Tick)
system.tol2bus.respLayer0.utilization             0.0                       # Layer utilization (Ratio)
system.tol2bus.respLayer1.occupancy             11000                       # Layer occupancy (ticks) (Tick)
system.tol2bus.respLayer1.utilization             0.0                       # Layer utilization (Ratio)
system.tol2bus.respLayer2.occupancy             16000                       # Layer occupancy (ticks) (Tick)
system.tol2bus.respLayer2.utilization             0.0                       # Layer utilization (Ratio)
system.tol2bus.respLayer3.occupancy              7000                       # Layer occupancy (ticks) (Tick)
system.tol2bus.respLayer3.utilization             0.0                       # Layer utilization (Ratio)
system.tol2bus.snoop_filter.totRequests            69                       # Total number of requests made to the snoop filter. (Count)
system.tol2bus.snoop_filter.hitSingleRequests           33                       # Number of requests hitting in the snoop filter with a single holder of the requested data. (Count)
system.tol2bus.snoop_filter.hitMultiRequests           11                       # Number of requests hitting in the snoop filter with multiple (>1) holders of the requested data. (Count)
system.tol2bus.snoop_filter.totSnoops               0                       # Total number of snoops made to the snoop filter. (Count)
system.tol2bus.snoop_filter.hitSingleSnoops            0                       # Number of snoops hitting in the snoop filter with a single holder of the requested data. (Count)
system.tol2bus.snoop_filter.hitMultiSnoops            0                       # Number of snoops hitting in the snoop filter with multiple (>1) holders of the requested data. (Count)
system.uartlite.power_state.pwrStateResidencyTicks::UNDEFINED   1025181500                       # Cumulative time (in ticks) in various power states (Tick)
system.voltage_domain.voltage                       1                       # Voltage in Volts (Volt)
system.workload.inst.arm                            0                       # number of arm instructions executed (Count)
system.workload.inst.quiesce                        0                       # number of quiesce instructions executed (Count)

---------- End Simulation Statistics   ----------
