
---------- Begin Simulation Statistics ----------
simSeconds                                   0.013182                       # Number of seconds simulated (Second)
simTicks                                  13181787000                       # Number of ticks simulated (Tick)
finalTick                                 13181787000                       # Number of ticks from beginning of simulation (restored from checkpoints and never reset) (Tick)
simFreq                                  1000000000000                       # The number of ticks per simulated second ((Tick/Second))
hostSeconds                                    223.33                       # Real time elapsed on the host (Second)
hostTickRate                                 59023612                       # The number of ticks simulated per host second (ticks/s) ((Tick/Second))
hostMemory                                   17087100                       # Number of bytes of host memory used (Byte)
simInsts                                     50000000                       # Number of instructions simulated (Count)
simOps                                       50000000                       # Number of ops (including micro ops) simulated (Count)
hostInstRate                                   223883                       # Simulator instruction rate (inst/s) ((Count/Second))
hostOpRate                                     223883                       # Simulator op (including micro ops) rate (op/s) ((Count/Second))
system.bridge.power_state.pwrStateResidencyTicks::UNDEFINED  13181787000                       # Cumulative time (in ticks) in various power states (Tick)
system.clk_domain.clock                          1000                       # Clock period in ticks (Tick)
system.cpu.numCycles                         26363579                       # Number of cpu cycles simulated (Cycle)
system.cpu.numWorkItemsStarted                      0                       # Number of work items this cpu started (Count)
system.cpu.numWorkItemsCompleted                    0                       # Number of work items this cpu completed (Count)
system.cpu.instsAdded                        74556633                       # Number of instructions added to the IQ (excludes non-spec) (Count)
system.cpu.nonSpecInstsAdded                       49                       # Number of non-speculative instructions added to the IQ (Count)
system.cpu.instsIssued                       67230014                       # Number of instructions issued (Count)
system.cpu.squashedInstsIssued                 517550                       # Number of squashed instructions issued (Count)
system.cpu.squashedInstsExamined             24556635                       # Number of squashed instructions iterated over during squash; mainly for profiling (Count)
system.cpu.squashedOperandsExamined          13739114                       # Number of squashed operands that are examined and possibly removed from graph (Count)
system.cpu.squashedNonSpecRemoved                  16                       # Number of squashed non-spec instructions that were removed (Count)
system.cpu.numIssuedDist::samples            26232573                       # Number of insts issued each cycle (Count)
system.cpu.numIssuedDist::mean               2.562845                       # Number of insts issued each cycle (Count)
system.cpu.numIssuedDist::stdev              2.725398                       # Number of insts issued each cycle (Count)
system.cpu.numIssuedDist::underflows                0      0.00%      0.00% # Number of insts issued each cycle (Count)
system.cpu.numIssuedDist::0                  11405408     43.48%     43.48% # Number of insts issued each cycle (Count)
system.cpu.numIssuedDist::1                   1339900      5.11%     48.59% # Number of insts issued each cycle (Count)
system.cpu.numIssuedDist::2                   1421323      5.42%     54.00% # Number of insts issued each cycle (Count)
system.cpu.numIssuedDist::3                   2025553      7.72%     61.73% # Number of insts issued each cycle (Count)
system.cpu.numIssuedDist::4                   2526471      9.63%     71.36% # Number of insts issued each cycle (Count)
system.cpu.numIssuedDist::5                   2500105      9.53%     80.89% # Number of insts issued each cycle (Count)
system.cpu.numIssuedDist::6                   2138233      8.15%     89.04% # Number of insts issued each cycle (Count)
system.cpu.numIssuedDist::7                   1469638      5.60%     94.64% # Number of insts issued each cycle (Count)
system.cpu.numIssuedDist::8                   1405942      5.36%    100.00% # Number of insts issued each cycle (Count)
system.cpu.numIssuedDist::overflows                 0      0.00%    100.00% # Number of insts issued each cycle (Count)
system.cpu.numIssuedDist::min_value                 0                       # Number of insts issued each cycle (Count)
system.cpu.numIssuedDist::max_value                 8                       # Number of insts issued each cycle (Count)
system.cpu.numIssuedDist::total              26232573                       # Number of insts issued each cycle (Count)
system.cpu.statFuBusy::No_OpClass                   0      0.00%      0.00% # attempts to use FU when none available (Count)
system.cpu.statFuBusy::IntAlu                  408713     15.12%     15.12% # attempts to use FU when none available (Count)
system.cpu.statFuBusy::IntMult                 129019      4.77%     19.89% # attempts to use FU when none available (Count)
system.cpu.statFuBusy::IntDiv                   16126      0.60%     20.49% # attempts to use FU when none available (Count)
system.cpu.statFuBusy::FloatAdd                     9      0.00%     20.49% # attempts to use FU when none available (Count)
system.cpu.statFuBusy::FloatCmp                     4      0.00%     20.49% # attempts to use FU when none available (Count)
system.cpu.statFuBusy::FloatCvt                   331      0.01%     20.50% # attempts to use FU when none available (Count)
system.cpu.statFuBusy::FloatMult                  337      0.01%     20.51% # attempts to use FU when none available (Count)
system.cpu.statFuBusy::FloatMultAcc                76      0.00%     20.52% # attempts to use FU when none available (Count)
system.cpu.statFuBusy::FloatDiv                   161      0.01%     20.52% # attempts to use FU when none available (Count)
system.cpu.statFuBusy::FloatMisc                 1118      0.04%     20.56% # attempts to use FU when none available (Count)
system.cpu.statFuBusy::FloatSqrt                    0      0.00%     20.56% # attempts to use FU when none available (Count)
system.cpu.statFuBusy::SimdAdd                      0      0.00%     20.56% # attempts to use FU when none available (Count)
system.cpu.statFuBusy::SimdAddAcc                   0      0.00%     20.56% # attempts to use FU when none available (Count)
system.cpu.statFuBusy::SimdAlu                      0      0.00%     20.56% # attempts to use FU when none available (Count)
system.cpu.statFuBusy::SimdCmp                      0      0.00%     20.56% # attempts to use FU when none available (Count)
system.cpu.statFuBusy::SimdCvt                      0      0.00%     20.56% # attempts to use FU when none available (Count)
system.cpu.statFuBusy::SimdMisc                     0      0.00%     20.56% # attempts to use FU when none available (Count)
system.cpu.statFuBusy::SimdMult                     0      0.00%     20.56% # attempts to use FU when none available (Count)
system.cpu.statFuBusy::SimdMultAcc                  0      0.00%     20.56% # attempts to use FU when none available (Count)
system.cpu.statFuBusy::SimdShift                    0      0.00%     20.56% # attempts to use FU when none available (Count)
system.cpu.statFuBusy::SimdShiftAcc                 0      0.00%     20.56% # attempts to use FU when none available (Count)
system.cpu.statFuBusy::SimdDiv                      0      0.00%     20.56% # attempts to use FU when none available (Count)
system.cpu.statFuBusy::SimdSqrt                     0      0.00%     20.56% # attempts to use FU when none available (Count)
system.cpu.statFuBusy::SimdFloatAdd                 0      0.00%     20.56% # attempts to use FU when none available (Count)
system.cpu.statFuBusy::SimdFloatAlu                 0      0.00%     20.56% # attempts to use FU when none available (Count)
system.cpu.statFuBusy::SimdFloatCmp                 0      0.00%     20.56% # attempts to use FU when none available (Count)
system.cpu.statFuBusy::SimdFloatCvt                 0      0.00%     20.56% # attempts to use FU when none available (Count)
system.cpu.statFuBusy::SimdFloatDiv                 0      0.00%     20.56% # attempts to use FU when none available (Count)
system.cpu.statFuBusy::SimdFloatMisc                0      0.00%     20.56% # attempts to use FU when none available (Count)
system.cpu.statFuBusy::SimdFloatMult                0      0.00%     20.56% # attempts to use FU when none available (Count)
system.cpu.statFuBusy::SimdFloatMultAcc             0      0.00%     20.56% # attempts to use FU when none available (Count)
system.cpu.statFuBusy::SimdFloatSqrt                0      0.00%     20.56% # attempts to use FU when none available (Count)
system.cpu.statFuBusy::SimdReduceAdd                0      0.00%     20.56% # attempts to use FU when none available (Count)
system.cpu.statFuBusy::SimdReduceAlu                0      0.00%     20.56% # attempts to use FU when none available (Count)
system.cpu.statFuBusy::SimdReduceCmp                0      0.00%     20.56% # attempts to use FU when none available (Count)
system.cpu.statFuBusy::SimdFloatReduceAdd            0      0.00%     20.56% # attempts to use FU when none available (Count)
system.cpu.statFuBusy::SimdFloatReduceCmp            0      0.00%     20.56% # attempts to use FU when none available (Count)
system.cpu.statFuBusy::SimdAes                      0      0.00%     20.56% # attempts to use FU when none available (Count)
system.cpu.statFuBusy::SimdAesMix                   0      0.00%     20.56% # attempts to use FU when none available (Count)
system.cpu.statFuBusy::SimdSha1Hash                 0      0.00%     20.56% # attempts to use FU when none available (Count)
system.cpu.statFuBusy::SimdSha1Hash2                0      0.00%     20.56% # attempts to use FU when none available (Count)
system.cpu.statFuBusy::SimdSha256Hash               0      0.00%     20.56% # attempts to use FU when none available (Count)
system.cpu.statFuBusy::SimdSha256Hash2              0      0.00%     20.56% # attempts to use FU when none available (Count)
system.cpu.statFuBusy::SimdShaSigma2                0      0.00%     20.56% # attempts to use FU when none available (Count)
system.cpu.statFuBusy::SimdShaSigma3                0      0.00%     20.56% # attempts to use FU when none available (Count)
system.cpu.statFuBusy::SimdPredAlu                  0      0.00%     20.56% # attempts to use FU when none available (Count)
system.cpu.statFuBusy::MemRead                1157227     42.81%     63.37% # attempts to use FU when none available (Count)
system.cpu.statFuBusy::MemWrite                985591     36.46%     99.83% # attempts to use FU when none available (Count)
system.cpu.statFuBusy::FloatMemRead              2467      0.09%     99.92% # attempts to use FU when none available (Count)
system.cpu.statFuBusy::FloatMemWrite             2054      0.08%    100.00% # attempts to use FU when none available (Count)
system.cpu.statFuBusy::IprAccess                    0      0.00%    100.00% # attempts to use FU when none available (Count)
system.cpu.statFuBusy::InstPrefetch                 0      0.00%    100.00% # attempts to use FU when none available (Count)
system.cpu.statIssuedInstType_0::No_OpClass           36      0.00%      0.00% # Number of instructions issued per FU type, per thread (Count)
system.cpu.statIssuedInstType_0::IntAlu      41227237     61.32%     61.32% # Number of instructions issued per FU type, per thread (Count)
system.cpu.statIssuedInstType_0::IntMult      1331908      1.98%     63.30% # Number of instructions issued per FU type, per thread (Count)
system.cpu.statIssuedInstType_0::IntDiv         42895      0.06%     63.37% # Number of instructions issued per FU type, per thread (Count)
system.cpu.statIssuedInstType_0::FloatAdd         7003      0.01%     63.38% # Number of instructions issued per FU type, per thread (Count)
system.cpu.statIssuedInstType_0::FloatCmp        21141      0.03%     63.41% # Number of instructions issued per FU type, per thread (Count)
system.cpu.statIssuedInstType_0::FloatCvt        25120      0.04%     63.45% # Number of instructions issued per FU type, per thread (Count)
system.cpu.statIssuedInstType_0::FloatMult         9156      0.01%     63.46% # Number of instructions issued per FU type, per thread (Count)
system.cpu.statIssuedInstType_0::FloatMultAcc         1645      0.00%     63.46% # Number of instructions issued per FU type, per thread (Count)
system.cpu.statIssuedInstType_0::FloatDiv         1382      0.00%     63.46% # Number of instructions issued per FU type, per thread (Count)
system.cpu.statIssuedInstType_0::FloatMisc         4257      0.01%     63.47% # Number of instructions issued per FU type, per thread (Count)
system.cpu.statIssuedInstType_0::FloatSqrt            0      0.00%     63.47% # Number of instructions issued per FU type, per thread (Count)
system.cpu.statIssuedInstType_0::SimdAdd            0      0.00%     63.47% # Number of instructions issued per FU type, per thread (Count)
system.cpu.statIssuedInstType_0::SimdAddAcc            0      0.00%     63.47% # Number of instructions issued per FU type, per thread (Count)
system.cpu.statIssuedInstType_0::SimdAlu            0      0.00%     63.47% # Number of instructions issued per FU type, per thread (Count)
system.cpu.statIssuedInstType_0::SimdCmp            0      0.00%     63.47% # Number of instructions issued per FU type, per thread (Count)
system.cpu.statIssuedInstType_0::SimdCvt            0      0.00%     63.47% # Number of instructions issued per FU type, per thread (Count)
system.cpu.statIssuedInstType_0::SimdMisc            0      0.00%     63.47% # Number of instructions issued per FU type, per thread (Count)
system.cpu.statIssuedInstType_0::SimdMult            0      0.00%     63.47% # Number of instructions issued per FU type, per thread (Count)
system.cpu.statIssuedInstType_0::SimdMultAcc            0      0.00%     63.47% # Number of instructions issued per FU type, per thread (Count)
system.cpu.statIssuedInstType_0::SimdShift            0      0.00%     63.47% # Number of instructions issued per FU type, per thread (Count)
system.cpu.statIssuedInstType_0::SimdShiftAcc            0      0.00%     63.47% # Number of instructions issued per FU type, per thread (Count)
system.cpu.statIssuedInstType_0::SimdDiv            0      0.00%     63.47% # Number of instructions issued per FU type, per thread (Count)
system.cpu.statIssuedInstType_0::SimdSqrt            0      0.00%     63.47% # Number of instructions issued per FU type, per thread (Count)
system.cpu.statIssuedInstType_0::SimdFloatAdd            0      0.00%     63.47% # Number of instructions issued per FU type, per thread (Count)
system.cpu.statIssuedInstType_0::SimdFloatAlu            0      0.00%     63.47% # Number of instructions issued per FU type, per thread (Count)
system.cpu.statIssuedInstType_0::SimdFloatCmp            0      0.00%     63.47% # Number of instructions issued per FU type, per thread (Count)
system.cpu.statIssuedInstType_0::SimdFloatCvt            0      0.00%     63.47% # Number of instructions issued per FU type, per thread (Count)
system.cpu.statIssuedInstType_0::SimdFloatDiv            0      0.00%     63.47% # Number of instructions issued per FU type, per thread (Count)
system.cpu.statIssuedInstType_0::SimdFloatMisc            0      0.00%     63.47% # Number of instructions issued per FU type, per thread (Count)
system.cpu.statIssuedInstType_0::SimdFloatMult            0      0.00%     63.47% # Number of instructions issued per FU type, per thread (Count)
system.cpu.statIssuedInstType_0::SimdFloatMultAcc            0      0.00%     63.47% # Number of instructions issued per FU type, per thread (Count)
system.cpu.statIssuedInstType_0::SimdFloatSqrt            0      0.00%     63.47% # Number of instructions issued per FU type, per thread (Count)
system.cpu.statIssuedInstType_0::SimdReduceAdd            0      0.00%     63.47% # Number of instructions issued per FU type, per thread (Count)
system.cpu.statIssuedInstType_0::SimdReduceAlu            0      0.00%     63.47% # Number of instructions issued per FU type, per thread (Count)
system.cpu.statIssuedInstType_0::SimdReduceCmp            0      0.00%     63.47% # Number of instructions issued per FU type, per thread (Count)
system.cpu.statIssuedInstType_0::SimdFloatReduceAdd            0      0.00%     63.47% # Number of instructions issued per FU type, per thread (Count)
system.cpu.statIssuedInstType_0::SimdFloatReduceCmp            0      0.00%     63.47% # Number of instructions issued per FU type, per thread (Count)
system.cpu.statIssuedInstType_0::SimdAes            0      0.00%     63.47% # Number of instructions issued per FU type, per thread (Count)
system.cpu.statIssuedInstType_0::SimdAesMix            0      0.00%     63.47% # Number of instructions issued per FU type, per thread (Count)
system.cpu.statIssuedInstType_0::SimdSha1Hash            0      0.00%     63.47% # Number of instructions issued per FU type, per thread (Count)
system.cpu.statIssuedInstType_0::SimdSha1Hash2            0      0.00%     63.47% # Number of instructions issued per FU type, per thread (Count)
system.cpu.statIssuedInstType_0::SimdSha256Hash            0      0.00%     63.47% # Number of instructions issued per FU type, per thread (Count)
system.cpu.statIssuedInstType_0::SimdSha256Hash2            0      0.00%     63.47% # Number of instructions issued per FU type, per thread (Count)
system.cpu.statIssuedInstType_0::SimdShaSigma2            0      0.00%     63.47% # Number of instructions issued per FU type, per thread (Count)
system.cpu.statIssuedInstType_0::SimdShaSigma3            0      0.00%     63.47% # Number of instructions issued per FU type, per thread (Count)
system.cpu.statIssuedInstType_0::SimdPredAlu            0      0.00%     63.47% # Number of instructions issued per FU type, per thread (Count)
system.cpu.statIssuedInstType_0::MemRead     16326296     24.28%     87.76% # Number of instructions issued per FU type, per thread (Count)
system.cpu.statIssuedInstType_0::MemWrite      8152881     12.13%     99.88% # Number of instructions issued per FU type, per thread (Count)
system.cpu.statIssuedInstType_0::FloatMemRead        56298      0.08%     99.97% # Number of instructions issued per FU type, per thread (Count)
system.cpu.statIssuedInstType_0::FloatMemWrite        22759      0.03%    100.00% # Number of instructions issued per FU type, per thread (Count)
system.cpu.statIssuedInstType_0::IprAccess            0      0.00%    100.00% # Number of instructions issued per FU type, per thread (Count)
system.cpu.statIssuedInstType_0::InstPrefetch            0      0.00%    100.00% # Number of instructions issued per FU type, per thread (Count)
system.cpu.statIssuedInstType_0::total       67230014                       # Number of instructions issued per FU type, per thread (Count)
system.cpu.issueRate                         2.550110                       # Inst issue rate ((Count/Cycle))
system.cpu.fuBusy                             2703233                       # FU busy when requested (Count)
system.cpu.fuBusyRate                        0.040209                       # FU busy rate (busy events/executed inst) ((Count/Count))
system.cpu.intInstQueueReads                163608720                       # Number of integer instruction queue reads (Count)
system.cpu.intInstQueueWrites                98878198                       # Number of integer instruction queue writes (Count)
system.cpu.intInstQueueWakeupAccesses        63840235                       # Number of integer instruction queue wakeup accesses (Count)
system.cpu.fpInstQueueReads                    304659                       # Number of floating instruction queue reads (Count)
system.cpu.fpInstQueueWrites                   244721                       # Number of floating instruction queue writes (Count)
system.cpu.fpInstQueueWakeupAccesses           139029                       # Number of floating instruction queue wakeup accesses (Count)
system.cpu.vecInstQueueReads                        0                       # Number of vector instruction queue reads (Count)
system.cpu.vecInstQueueWrites                       0                       # Number of vector instruction queue writes (Count)
system.cpu.vecInstQueueWakeupAccesses               0                       # Number of vector instruction queue wakeup accesses (Count)
system.cpu.intAluAccesses                    69777893                       # Number of integer alu accesses (Count)
system.cpu.fpAluAccesses                       155318                       # Number of floating point alu accesses (Count)
system.cpu.vecAluAccesses                           0                       # Number of vector alu accesses (Count)
system.cpu.numInsts                          65030205                       # Number of executed instructions (Count)
system.cpu.numLoadInsts                      15554173                       # Number of load instructions executed (Count)
system.cpu.numSquashedInsts                   2161006                       # Number of squashed instructions skipped in execute (Count)
system.cpu.numSwp                                   0                       # Number of swp insts executed (Count)
system.cpu.numNop                                   0                       # Number of nop insts executed (Count)
system.cpu.numRefs                           23397481                       # Number of memory reference insts executed (Count)
system.cpu.numBranches                        9925282                       # Number of branches executed (Count)
system.cpu.numStoreInsts                      7843308                       # Number of stores executed (Count)
system.cpu.numRate                           2.466668                       # Inst execution rate ((Count/Cycle))
system.cpu.timesIdled                            1301                       # Number of times that the entire CPU went into an idle state and unscheduled itself (Count)
system.cpu.idleCycles                          131006                       # Total number of cycles that the CPU has spent unscheduled due to idling (Cycle)
system.cpu.committedInsts                    50000000                       # Number of Instructions Simulated (Count)
system.cpu.committedOps                      50000000                       # Number of Ops (including micro ops) Simulated (Count)
system.cpu.cpi                               0.527272                       # CPI: Cycles Per Instruction ((Cycle/Count))
system.cpu.totalCpi                          0.527272                       # CPI: Total CPI of All Threads ((Cycle/Count))
system.cpu.ipc                               1.896556                       # IPC: Instructions Per Cycle ((Count/Cycle))
system.cpu.totalIpc                          1.896556                       # IPC: Total IPC of All Threads ((Count/Cycle))
system.cpu.intRegfileReads                   77533851                       # Number of integer regfile reads (Count)
system.cpu.intRegfileWrites                  47514476                       # Number of integer regfile writes (Count)
system.cpu.fpRegfileReads                      122321                       # Number of floating regfile reads (Count)
system.cpu.fpRegfileWrites                      95507                       # Number of floating regfile writes (Count)
system.cpu.miscRegfileReads                 472900536                       # number of misc regfile reads (Count)
system.cpu.miscRegfileWrites                    93552                       # number of misc regfile writes (Count)
system.cpu.lastCommitTick                 13181787000                       # The last tick to commit an instruction (Count)
system.cpu.MemDepUnit__0.insertedLoads       18211047                       # Number of loads inserted to the mem dependence unit. (Count)
system.cpu.MemDepUnit__0.insertedStores       9275247                       # Number of stores inserted to the mem dependence unit. (Count)
system.cpu.MemDepUnit__0.conflictingLoads      1141799                       # Number of conflicting loads. (Count)
system.cpu.MemDepUnit__0.conflictingStores      1244255                       # Number of conflicting stores. (Count)
system.cpu.MemDepUnit__1.insertedLoads              0                       # Number of loads inserted to the mem dependence unit. (Count)
system.cpu.MemDepUnit__1.insertedStores             0                       # Number of stores inserted to the mem dependence unit. (Count)
system.cpu.MemDepUnit__1.conflictingLoads            0                       # Number of conflicting loads. (Count)
system.cpu.MemDepUnit__1.conflictingStores            0                       # Number of conflicting stores. (Count)
system.cpu.MemDepUnit__2.insertedLoads              0                       # Number of loads inserted to the mem dependence unit. (Count)
system.cpu.MemDepUnit__2.insertedStores             0                       # Number of stores inserted to the mem dependence unit. (Count)
system.cpu.MemDepUnit__2.conflictingLoads            0                       # Number of conflicting loads. (Count)
system.cpu.MemDepUnit__2.conflictingStores            0                       # Number of conflicting stores. (Count)
system.cpu.MemDepUnit__3.insertedLoads              0                       # Number of loads inserted to the mem dependence unit. (Count)
system.cpu.MemDepUnit__3.insertedStores             0                       # Number of stores inserted to the mem dependence unit. (Count)
system.cpu.MemDepUnit__3.conflictingLoads            0                       # Number of conflicting loads. (Count)
system.cpu.MemDepUnit__3.conflictingStores            0                       # Number of conflicting stores. (Count)
system.cpu.branchPred.lookups                15953269                       # Number of BP lookups (Count)
system.cpu.branchPred.condPredicted          13137860                       # Number of conditional branches predicted (Count)
system.cpu.branchPred.condIncorrect            846165                       # Number of conditional branches incorrect (Count)
system.cpu.branchPred.BTBLookups              7543612                       # Number of BTB lookups (Count)
system.cpu.branchPred.BTBHits                 7296534                       # Number of BTB hits (Count)
system.cpu.branchPred.BTBHitRatio            0.967247                       # BTB Hit Ratio (Ratio)
system.cpu.branchPred.RASUsed                 1028690                       # Number of times the RAS was used to get a target. (Count)
system.cpu.branchPred.RASIncorrect               3064                       # Number of incorrect RAS predictions. (Count)
system.cpu.branchPred.indirectLookups           12969                       # Number of indirect predictor lookups. (Count)
system.cpu.branchPred.indirectHits              12969                       # Number of indirect target hits. (Count)
system.cpu.branchPred.indirectMisses                0                       # Number of indirect misses. (Count)
system.cpu.branchPred.indirectMispredicted          214                       # Number of mispredicted indirect branches. (Count)
system.cpu.branchPred.indirectBranchPred.mainlookupHit         5114                       # ittage the provider component lookup hit (Count)
system.cpu.branchPred.tage.longestMatchProviderCorrect      1965325                       # Number of times TAGE Longest Match is the provider and the prediction is correct (Count)
system.cpu.branchPred.tage.altMatchProviderCorrect        11945                       # Number of times TAGE Alt Match is the provider and the prediction is correct (Count)
system.cpu.branchPred.tage.bimodalAltMatchProviderCorrect        16829                       # Number of times TAGE Alt Match is the bimodal and it is the provider and the prediction is correct (Count)
system.cpu.branchPred.tage.bimodalProviderCorrect      3793832                       # Number of times there are no hits on the TAGE tables and the bimodal prediction is correct (Count)
system.cpu.branchPred.tage.longestMatchProviderWrong       329402                       # Number of times TAGE Longest Match is the provider and the prediction is wrong (Count)
system.cpu.branchPred.tage.altMatchProviderWrong         8344                       # Number of times TAGE Alt Match is the provider and the prediction is wrong (Count)
system.cpu.branchPred.tage.bimodalAltMatchProviderWrong        11695                       # Number of times TAGE Alt Match is the bimodal and it is the provider and the prediction is wrong (Count)
system.cpu.branchPred.tage.bimodalProviderWrong       277512                       # Number of times there are no hits on the TAGE tables and the bimodal prediction is wrong (Count)
system.cpu.branchPred.tage.altMatchProviderWouldHaveHit       174431                       # Number of times TAGE Longest Match is the provider, the prediction is wrong and Alt Match prediction was correct (Count)
system.cpu.branchPred.tage.longestMatchProviderWouldHaveHit        13819                       # Number of times TAGE Alt Match is the provider, the prediction is wrong and Longest Match prediction was correct (Count)
system.cpu.branchPred.tage.longestMatchProvider::0            0                       # TAGE provider for longest match (Count)
system.cpu.branchPred.tage.longestMatchProvider::1       936773                       # TAGE provider for longest match (Count)
system.cpu.branchPred.tage.longestMatchProvider::2       637058                       # TAGE provider for longest match (Count)
system.cpu.branchPred.tage.longestMatchProvider::3       337746                       # TAGE provider for longest match (Count)
system.cpu.branchPred.tage.longestMatchProvider::4       212317                       # TAGE provider for longest match (Count)
system.cpu.branchPred.tage.longestMatchProvider::5       103914                       # TAGE provider for longest match (Count)
system.cpu.branchPred.tage.longestMatchProvider::6        50202                       # TAGE provider for longest match (Count)
system.cpu.branchPred.tage.longestMatchProvider::7        37006                       # TAGE provider for longest match (Count)
system.cpu.branchPred.tage.altMatchProvider::0      1644742                       # TAGE provider for alt match (Count)
system.cpu.branchPred.tage.altMatchProvider::1       410075                       # TAGE provider for alt match (Count)
system.cpu.branchPred.tage.altMatchProvider::2       163462                       # TAGE provider for alt match (Count)
system.cpu.branchPred.tage.altMatchProvider::3        63221                       # TAGE provider for alt match (Count)
system.cpu.branchPred.tage.altMatchProvider::4        21364                       # TAGE provider for alt match (Count)
system.cpu.branchPred.tage.altMatchProvider::5         6428                       # TAGE provider for alt match (Count)
system.cpu.branchPred.tage.altMatchProvider::6         5724                       # TAGE provider for alt match (Count)
system.cpu.branchPred.tage.altMatchProvider::7            0                       # TAGE provider for alt match (Count)
system.cpu.commit.commitSquashedInsts        24557988                       # The number of squashed insts skipped by commit (Count)
system.cpu.commit.commitNonSpecStalls              33                       # The number of times commit has been forced to stall to communicate backwards (Count)
system.cpu.commit.branchMispredicts            773860                       # The number of times a branch was mispredicted (Count)
system.cpu.commit.numCommittedDist::samples     21554266                       # Number of insts commited each cycle (Count)
system.cpu.commit.numCommittedDist::mean     2.319726                       # Number of insts commited each cycle (Count)
system.cpu.commit.numCommittedDist::stdev     2.613431                       # Number of insts commited each cycle (Count)
system.cpu.commit.numCommittedDist::underflows            0      0.00%      0.00% # Number of insts commited each cycle (Count)
system.cpu.commit.numCommittedDist::0         9719687     45.09%     45.09% # Number of insts commited each cycle (Count)
system.cpu.commit.numCommittedDist::1         2492386     11.56%     56.66% # Number of insts commited each cycle (Count)
system.cpu.commit.numCommittedDist::2          998672      4.63%     61.29% # Number of insts commited each cycle (Count)
system.cpu.commit.numCommittedDist::3          823735      3.82%     65.11% # Number of insts commited each cycle (Count)
system.cpu.commit.numCommittedDist::4          732820      3.40%     68.51% # Number of insts commited each cycle (Count)
system.cpu.commit.numCommittedDist::5          614011      2.85%     71.36% # Number of insts commited each cycle (Count)
system.cpu.commit.numCommittedDist::6         6172955     28.64%    100.00% # Number of insts commited each cycle (Count)
system.cpu.commit.numCommittedDist::overflows            0      0.00%    100.00% # Number of insts commited each cycle (Count)
system.cpu.commit.numCommittedDist::min_value            0                       # Number of insts commited each cycle (Count)
system.cpu.commit.numCommittedDist::max_value            6                       # Number of insts commited each cycle (Count)
system.cpu.commit.numCommittedDist::total     21554266                       # Number of insts commited each cycle (Count)
system.cpu.commit.instsCommitted             50000000                       # Number of instructions committed (Count)
system.cpu.commit.opsCommitted               50000000                       # Number of ops (including micro ops) committed (Count)
system.cpu.commit.memRefs                    18571585                       # Number of memory references committed (Count)
system.cpu.commit.loads                      11857331                       # Number of loads committed (Count)
system.cpu.commit.amos                              0                       # Number of atomic instructions committed (Count)
system.cpu.commit.membars                           0                       # Number of memory barriers committed (Count)
system.cpu.commit.branches                    7817367                       # Number of branches committed (Count)
system.cpu.commit.vectorInstructions                0                       # Number of committed Vector instructions. (Count)
system.cpu.commit.floating                     110517                       # Number of committed floating point instructions. (Count)
system.cpu.commit.integer                    49655943                       # Number of committed integer instructions. (Count)
system.cpu.commit.functionCalls                523573                       # Number of function calls committed. (Count)
system.cpu.commit.committedInstType_0::No_OpClass           32      0.00%      0.00% # Class of committed instruction (Count)
system.cpu.commit.committedInstType_0::IntAlu     30355055     60.71%     60.71% # Class of committed instruction (Count)
system.cpu.commit.committedInstType_0::IntMult       991424      1.98%     62.69% # Class of committed instruction (Count)
system.cpu.commit.committedInstType_0::IntDiv        26011      0.05%     62.75% # Class of committed instruction (Count)
system.cpu.commit.committedInstType_0::FloatAdd         5833      0.01%     62.76% # Class of committed instruction (Count)
system.cpu.commit.committedInstType_0::FloatCmp        16921      0.03%     62.79% # Class of committed instruction (Count)
system.cpu.commit.committedInstType_0::FloatCvt        19447      0.04%     62.83% # Class of committed instruction (Count)
system.cpu.commit.committedInstType_0::FloatMult         8034      0.02%     62.85% # Class of committed instruction (Count)
system.cpu.commit.committedInstType_0::FloatMultAcc         1494      0.00%     62.85% # Class of committed instruction (Count)
system.cpu.commit.committedInstType_0::FloatDiv         1221      0.00%     62.85% # Class of committed instruction (Count)
system.cpu.commit.committedInstType_0::FloatMisc         2943      0.01%     62.86% # Class of committed instruction (Count)
system.cpu.commit.committedInstType_0::FloatSqrt            0      0.00%     62.86% # Class of committed instruction (Count)
system.cpu.commit.committedInstType_0::SimdAdd            0      0.00%     62.86% # Class of committed instruction (Count)
system.cpu.commit.committedInstType_0::SimdAddAcc            0      0.00%     62.86% # Class of committed instruction (Count)
system.cpu.commit.committedInstType_0::SimdAlu            0      0.00%     62.86% # Class of committed instruction (Count)
system.cpu.commit.committedInstType_0::SimdCmp            0      0.00%     62.86% # Class of committed instruction (Count)
system.cpu.commit.committedInstType_0::SimdCvt            0      0.00%     62.86% # Class of committed instruction (Count)
system.cpu.commit.committedInstType_0::SimdMisc            0      0.00%     62.86% # Class of committed instruction (Count)
system.cpu.commit.committedInstType_0::SimdMult            0      0.00%     62.86% # Class of committed instruction (Count)
system.cpu.commit.committedInstType_0::SimdMultAcc            0      0.00%     62.86% # Class of committed instruction (Count)
system.cpu.commit.committedInstType_0::SimdShift            0      0.00%     62.86% # Class of committed instruction (Count)
system.cpu.commit.committedInstType_0::SimdShiftAcc            0      0.00%     62.86% # Class of committed instruction (Count)
system.cpu.commit.committedInstType_0::SimdDiv            0      0.00%     62.86% # Class of committed instruction (Count)
system.cpu.commit.committedInstType_0::SimdSqrt            0      0.00%     62.86% # Class of committed instruction (Count)
system.cpu.commit.committedInstType_0::SimdFloatAdd            0      0.00%     62.86% # Class of committed instruction (Count)
system.cpu.commit.committedInstType_0::SimdFloatAlu            0      0.00%     62.86% # Class of committed instruction (Count)
system.cpu.commit.committedInstType_0::SimdFloatCmp            0      0.00%     62.86% # Class of committed instruction (Count)
system.cpu.commit.committedInstType_0::SimdFloatCvt            0      0.00%     62.86% # Class of committed instruction (Count)
system.cpu.commit.committedInstType_0::SimdFloatDiv            0      0.00%     62.86% # Class of committed instruction (Count)
system.cpu.commit.committedInstType_0::SimdFloatMisc            0      0.00%     62.86% # Class of committed instruction (Count)
system.cpu.commit.committedInstType_0::SimdFloatMult            0      0.00%     62.86% # Class of committed instruction (Count)
system.cpu.commit.committedInstType_0::SimdFloatMultAcc            0      0.00%     62.86% # Class of committed instruction (Count)
system.cpu.commit.committedInstType_0::SimdFloatSqrt            0      0.00%     62.86% # Class of committed instruction (Count)
system.cpu.commit.committedInstType_0::SimdReduceAdd            0      0.00%     62.86% # Class of committed instruction (Count)
system.cpu.commit.committedInstType_0::SimdReduceAlu            0      0.00%     62.86% # Class of committed instruction (Count)
system.cpu.commit.committedInstType_0::SimdReduceCmp            0      0.00%     62.86% # Class of committed instruction (Count)
system.cpu.commit.committedInstType_0::SimdFloatReduceAdd            0      0.00%     62.86% # Class of committed instruction (Count)
system.cpu.commit.committedInstType_0::SimdFloatReduceCmp            0      0.00%     62.86% # Class of committed instruction (Count)
system.cpu.commit.committedInstType_0::SimdAes            0      0.00%     62.86% # Class of committed instruction (Count)
system.cpu.commit.committedInstType_0::SimdAesMix            0      0.00%     62.86% # Class of committed instruction (Count)
system.cpu.commit.committedInstType_0::SimdSha1Hash            0      0.00%     62.86% # Class of committed instruction (Count)
system.cpu.commit.committedInstType_0::SimdSha1Hash2            0      0.00%     62.86% # Class of committed instruction (Count)
system.cpu.commit.committedInstType_0::SimdSha256Hash            0      0.00%     62.86% # Class of committed instruction (Count)
system.cpu.commit.committedInstType_0::SimdSha256Hash2            0      0.00%     62.86% # Class of committed instruction (Count)
system.cpu.commit.committedInstType_0::SimdShaSigma2            0      0.00%     62.86% # Class of committed instruction (Count)
system.cpu.commit.committedInstType_0::SimdShaSigma3            0      0.00%     62.86% # Class of committed instruction (Count)
system.cpu.commit.committedInstType_0::SimdPredAlu            0      0.00%     62.86% # Class of committed instruction (Count)
system.cpu.commit.committedInstType_0::MemRead     11819697     23.64%     86.50% # Class of committed instruction (Count)
system.cpu.commit.committedInstType_0::MemWrite      6697264     13.39%     99.89% # Class of committed instruction (Count)
system.cpu.commit.committedInstType_0::FloatMemRead        37634      0.08%     99.97% # Class of committed instruction (Count)
system.cpu.commit.committedInstType_0::FloatMemWrite        16990      0.03%    100.00% # Class of committed instruction (Count)
system.cpu.commit.committedInstType_0::IprAccess            0      0.00%    100.00% # Class of committed instruction (Count)
system.cpu.commit.committedInstType_0::InstPrefetch            0      0.00%    100.00% # Class of committed instruction (Count)
system.cpu.commit.committedInstType_0::total     50000000                       # Class of committed instruction (Count)
system.cpu.commit.commitEligibleSamples       6172955                       # number cycles where commit BW limit reached (Cycle)
system.cpu.dcache.demandHits::cpu.data       21002684                       # number of demand (read+write) hits (Count)
system.cpu.dcache.demandHits::total          21002684                       # number of demand (read+write) hits (Count)
system.cpu.dcache.overallHits::cpu.data      21002684                       # number of overall hits (Count)
system.cpu.dcache.overallHits::total         21002684                       # number of overall hits (Count)
system.cpu.dcache.demandMisses::cpu.data        72840                       # number of demand (read+write) misses (Count)
system.cpu.dcache.demandMisses::total           72840                       # number of demand (read+write) misses (Count)
system.cpu.dcache.overallMisses::cpu.data        72840                       # number of overall misses (Count)
system.cpu.dcache.overallMisses::total          72840                       # number of overall misses (Count)
system.cpu.dcache.demandMissLatency::cpu.data   4093570995                       # number of demand (read+write) miss ticks (Tick)
system.cpu.dcache.demandMissLatency::total   4093570995                       # number of demand (read+write) miss ticks (Tick)
system.cpu.dcache.overallMissLatency::cpu.data   4093570995                       # number of overall miss ticks (Tick)
system.cpu.dcache.overallMissLatency::total   4093570995                       # number of overall miss ticks (Tick)
system.cpu.dcache.demandAccesses::cpu.data     21075524                       # number of demand (read+write) accesses (Count)
system.cpu.dcache.demandAccesses::total      21075524                       # number of demand (read+write) accesses (Count)
system.cpu.dcache.overallAccesses::cpu.data     21075524                       # number of overall (read+write) accesses (Count)
system.cpu.dcache.overallAccesses::total     21075524                       # number of overall (read+write) accesses (Count)
system.cpu.dcache.demandMissRate::cpu.data     0.003456                       # miss rate for demand accesses (Ratio)
system.cpu.dcache.demandMissRate::total      0.003456                       # miss rate for demand accesses (Ratio)
system.cpu.dcache.overallMissRate::cpu.data     0.003456                       # miss rate for overall accesses (Ratio)
system.cpu.dcache.overallMissRate::total     0.003456                       # miss rate for overall accesses (Ratio)
system.cpu.dcache.demandAvgMissLatency::cpu.data 56199.491969                       # average overall miss latency in ticks ((Tick/Count))
system.cpu.dcache.demandAvgMissLatency::total 56199.491969                       # average overall miss latency in ticks ((Tick/Count))
system.cpu.dcache.overallAvgMissLatency::cpu.data 56199.491969                       # average overall miss latency ((Tick/Count))
system.cpu.dcache.overallAvgMissLatency::total 56199.491969                       # average overall miss latency ((Tick/Count))
system.cpu.dcache.blockedCycles::no_mshrs         4087                       # number of cycles access was blocked (Cycle)
system.cpu.dcache.blockedCycles::no_targets         4955                       # number of cycles access was blocked (Cycle)
system.cpu.dcache.blockedCauses::no_mshrs          271                       # number of times access was blocked (Count)
system.cpu.dcache.blockedCauses::no_targets           55                       # number of times access was blocked (Count)
system.cpu.dcache.avgBlocked::no_mshrs      15.081181                       # average number of cycles each access was blocked ((Cycle/Count))
system.cpu.dcache.avgBlocked::no_targets    90.090909                       # average number of cycles each access was blocked ((Cycle/Count))
system.cpu.dcache.writebacks::writebacks        28134                       # number of writebacks (Count)
system.cpu.dcache.writebacks::total             28134                       # number of writebacks (Count)
system.cpu.dcache.demandMshrHits::cpu.data        42658                       # number of demand (read+write) MSHR hits (Count)
system.cpu.dcache.demandMshrHits::total         42658                       # number of demand (read+write) MSHR hits (Count)
system.cpu.dcache.overallMshrHits::cpu.data        42658                       # number of overall MSHR hits (Count)
system.cpu.dcache.overallMshrHits::total        42658                       # number of overall MSHR hits (Count)
system.cpu.dcache.demandMshrMisses::cpu.data        30182                       # number of demand (read+write) MSHR misses (Count)
system.cpu.dcache.demandMshrMisses::total        30182                       # number of demand (read+write) MSHR misses (Count)
system.cpu.dcache.overallMshrMisses::cpu.data        30182                       # number of overall MSHR misses (Count)
system.cpu.dcache.overallMshrMisses::total        30182                       # number of overall MSHR misses (Count)
system.cpu.dcache.overallMshrUncacheable::cpu.data            2                       # number of overall MSHR uncacheable misses (Count)
system.cpu.dcache.overallMshrUncacheable::total            2                       # number of overall MSHR uncacheable misses (Count)
system.cpu.dcache.demandMshrMissLatency::cpu.data   1906048996                       # number of demand (read+write) MSHR miss ticks (Tick)
system.cpu.dcache.demandMshrMissLatency::total   1906048996                       # number of demand (read+write) MSHR miss ticks (Tick)
system.cpu.dcache.overallMshrMissLatency::cpu.data   1906048996                       # number of overall MSHR miss ticks (Tick)
system.cpu.dcache.overallMshrMissLatency::total   1906048996                       # number of overall MSHR miss ticks (Tick)
system.cpu.dcache.demandMshrMissRate::cpu.data     0.001432                       # mshr miss ratio for demand accesses (Ratio)
system.cpu.dcache.demandMshrMissRate::total     0.001432                       # mshr miss ratio for demand accesses (Ratio)
system.cpu.dcache.overallMshrMissRate::cpu.data     0.001432                       # mshr miss ratio for overall accesses (Ratio)
system.cpu.dcache.overallMshrMissRate::total     0.001432                       # mshr miss ratio for overall accesses (Ratio)
system.cpu.dcache.demandAvgMshrMissLatency::cpu.data 63151.845338                       # average overall mshr miss latency ((Tick/Count))
system.cpu.dcache.demandAvgMshrMissLatency::total 63151.845338                       # average overall mshr miss latency ((Tick/Count))
system.cpu.dcache.overallAvgMshrMissLatency::cpu.data 63151.845338                       # average overall mshr miss latency ((Tick/Count))
system.cpu.dcache.overallAvgMshrMissLatency::total 63151.845338                       # average overall mshr miss latency ((Tick/Count))
system.cpu.dcache.replacements                  28134                       # number of replacements (Count)
system.cpu.dcache.LoadLockedReq.misses::cpu.data            1                       # number of LoadLockedReq misses (Count)
system.cpu.dcache.LoadLockedReq.misses::total            1                       # number of LoadLockedReq misses (Count)
system.cpu.dcache.LoadLockedReq.missLatency::cpu.data       116500                       # number of LoadLockedReq miss ticks (Tick)
system.cpu.dcache.LoadLockedReq.missLatency::total       116500                       # number of LoadLockedReq miss ticks (Tick)
system.cpu.dcache.LoadLockedReq.accesses::cpu.data            1                       # number of LoadLockedReq accesses(hits+misses) (Count)
system.cpu.dcache.LoadLockedReq.accesses::total            1                       # number of LoadLockedReq accesses(hits+misses) (Count)
system.cpu.dcache.LoadLockedReq.missRate::cpu.data            1                       # miss rate for LoadLockedReq accesses (Ratio)
system.cpu.dcache.LoadLockedReq.missRate::total            1                       # miss rate for LoadLockedReq accesses (Ratio)
system.cpu.dcache.LoadLockedReq.avgMissLatency::cpu.data       116500                       # average LoadLockedReq miss latency ((Tick/Count))
system.cpu.dcache.LoadLockedReq.avgMissLatency::total       116500                       # average LoadLockedReq miss latency ((Tick/Count))
system.cpu.dcache.LoadLockedReq.mshrHits::cpu.data            1                       # number of LoadLockedReq MSHR hits (Count)
system.cpu.dcache.LoadLockedReq.mshrHits::total            1                       # number of LoadLockedReq MSHR hits (Count)
system.cpu.dcache.ReadReq.hits::cpu.data     14308591                       # number of ReadReq hits (Count)
system.cpu.dcache.ReadReq.hits::total        14308591                       # number of ReadReq hits (Count)
system.cpu.dcache.ReadReq.misses::cpu.data        52682                       # number of ReadReq misses (Count)
system.cpu.dcache.ReadReq.misses::total         52682                       # number of ReadReq misses (Count)
system.cpu.dcache.ReadReq.missLatency::cpu.data   3415800000                       # number of ReadReq miss ticks (Tick)
system.cpu.dcache.ReadReq.missLatency::total   3415800000                       # number of ReadReq miss ticks (Tick)
system.cpu.dcache.ReadReq.accesses::cpu.data     14361273                       # number of ReadReq accesses(hits+misses) (Count)
system.cpu.dcache.ReadReq.accesses::total     14361273                       # number of ReadReq accesses(hits+misses) (Count)
system.cpu.dcache.ReadReq.missRate::cpu.data     0.003668                       # miss rate for ReadReq accesses (Ratio)
system.cpu.dcache.ReadReq.missRate::total     0.003668                       # miss rate for ReadReq accesses (Ratio)
system.cpu.dcache.ReadReq.avgMissLatency::cpu.data 64838.085114                       # average ReadReq miss latency ((Tick/Count))
system.cpu.dcache.ReadReq.avgMissLatency::total 64838.085114                       # average ReadReq miss latency ((Tick/Count))
system.cpu.dcache.ReadReq.mshrHits::cpu.data        27676                       # number of ReadReq MSHR hits (Count)
system.cpu.dcache.ReadReq.mshrHits::total        27676                       # number of ReadReq MSHR hits (Count)
system.cpu.dcache.ReadReq.mshrMisses::cpu.data        25006                       # number of ReadReq MSHR misses (Count)
system.cpu.dcache.ReadReq.mshrMisses::total        25006                       # number of ReadReq MSHR misses (Count)
system.cpu.dcache.ReadReq.mshrMissLatency::cpu.data   1726704000                       # number of ReadReq MSHR miss ticks (Tick)
system.cpu.dcache.ReadReq.mshrMissLatency::total   1726704000                       # number of ReadReq MSHR miss ticks (Tick)
system.cpu.dcache.ReadReq.mshrMissRate::cpu.data     0.001741                       # mshr miss rate for ReadReq accesses (Ratio)
system.cpu.dcache.ReadReq.mshrMissRate::total     0.001741                       # mshr miss rate for ReadReq accesses (Ratio)
system.cpu.dcache.ReadReq.avgMshrMissLatency::cpu.data 69051.587619                       # average ReadReq mshr miss latency ((Tick/Count))
system.cpu.dcache.ReadReq.avgMshrMissLatency::total 69051.587619                       # average ReadReq mshr miss latency ((Tick/Count))
system.cpu.dcache.WriteReq.hits::cpu.data      6694093                       # number of WriteReq hits (Count)
system.cpu.dcache.WriteReq.hits::total        6694093                       # number of WriteReq hits (Count)
system.cpu.dcache.WriteReq.misses::cpu.data        20158                       # number of WriteReq misses (Count)
system.cpu.dcache.WriteReq.misses::total        20158                       # number of WriteReq misses (Count)
system.cpu.dcache.WriteReq.missLatency::cpu.data    677770995                       # number of WriteReq miss ticks (Tick)
system.cpu.dcache.WriteReq.missLatency::total    677770995                       # number of WriteReq miss ticks (Tick)
system.cpu.dcache.WriteReq.accesses::cpu.data      6714251                       # number of WriteReq accesses(hits+misses) (Count)
system.cpu.dcache.WriteReq.accesses::total      6714251                       # number of WriteReq accesses(hits+misses) (Count)
system.cpu.dcache.WriteReq.missRate::cpu.data     0.003002                       # miss rate for WriteReq accesses (Ratio)
system.cpu.dcache.WriteReq.missRate::total     0.003002                       # miss rate for WriteReq accesses (Ratio)
system.cpu.dcache.WriteReq.avgMissLatency::cpu.data 33622.928614                       # average WriteReq miss latency ((Tick/Count))
system.cpu.dcache.WriteReq.avgMissLatency::total 33622.928614                       # average WriteReq miss latency ((Tick/Count))
system.cpu.dcache.WriteReq.mshrHits::cpu.data        14982                       # number of WriteReq MSHR hits (Count)
system.cpu.dcache.WriteReq.mshrHits::total        14982                       # number of WriteReq MSHR hits (Count)
system.cpu.dcache.WriteReq.mshrMisses::cpu.data         5176                       # number of WriteReq MSHR misses (Count)
system.cpu.dcache.WriteReq.mshrMisses::total         5176                       # number of WriteReq MSHR misses (Count)
system.cpu.dcache.WriteReq.mshrUncacheable::cpu.data            2                       # number of WriteReq MSHR uncacheable (Count)
system.cpu.dcache.WriteReq.mshrUncacheable::total            2                       # number of WriteReq MSHR uncacheable (Count)
system.cpu.dcache.WriteReq.mshrMissLatency::cpu.data    179344996                       # number of WriteReq MSHR miss ticks (Tick)
system.cpu.dcache.WriteReq.mshrMissLatency::total    179344996                       # number of WriteReq MSHR miss ticks (Tick)
system.cpu.dcache.WriteReq.mshrMissRate::cpu.data     0.000771                       # mshr miss rate for WriteReq accesses (Ratio)
system.cpu.dcache.WriteReq.mshrMissRate::total     0.000771                       # mshr miss rate for WriteReq accesses (Ratio)
system.cpu.dcache.WriteReq.avgMshrMissLatency::cpu.data 34649.342349                       # average WriteReq mshr miss latency ((Tick/Count))
system.cpu.dcache.WriteReq.avgMshrMissLatency::total 34649.342349                       # average WriteReq mshr miss latency ((Tick/Count))
system.cpu.dcache.power_state.pwrStateResidencyTicks::UNDEFINED  13181787000                       # Cumulative time (in ticks) in various power states (Tick)
system.cpu.dcache.tags.tagsInUse          1986.815352                       # Average ticks per tags in use ((Tick/Count))
system.cpu.dcache.tags.totalRefs             10171074                       # Total number of references to valid blocks. (Count)
system.cpu.dcache.tags.sampledRefs              28134                       # Sample count of references to valid blocks. (Count)
system.cpu.dcache.tags.avgRefs             361.522499                       # Average number of references to valid blocks. ((Count/Count))
system.cpu.dcache.tags.warmupTick              169500                       # The tick when the warmup percentage was hit. (Tick)
system.cpu.dcache.tags.occupancies::cpu.data  1986.815352                       # Average occupied blocks per tick, per requestor ((Count/Tick))
system.cpu.dcache.tags.avgOccs::cpu.data     0.970125                       # Average percentage of cache occupancy ((Ratio/Tick))
system.cpu.dcache.tags.avgOccs::total        0.970125                       # Average percentage of cache occupancy ((Ratio/Tick))
system.cpu.dcache.tags.occupanciesTaskId::1024         2048                       # Occupied blocks per task id (Count)
system.cpu.dcache.tags.ageTaskId_1024::1           32                       # Occupied blocks per task id, per block age (Count)
system.cpu.dcache.tags.ageTaskId_1024::2          747                       # Occupied blocks per task id, per block age (Count)
system.cpu.dcache.tags.ageTaskId_1024::3         1240                       # Occupied blocks per task id, per block age (Count)
system.cpu.dcache.tags.ageTaskId_1024::4           29                       # Occupied blocks per task id, per block age (Count)
system.cpu.dcache.tags.ratioOccsTaskId::1024            1                       # Ratio of occupied blocks and all blocks, per task id (Ratio)
system.cpu.dcache.tags.tagAccesses          168634382                       # Number of tag accesses (Count)
system.cpu.dcache.tags.dataAccesses         168634382                       # Number of data accesses (Count)
system.cpu.dcache.tags.power_state.pwrStateResidencyTicks::UNDEFINED  13181787000                       # Cumulative time (in ticks) in various power states (Tick)
system.cpu.decode.idleCycles                  2313176                       # Number of cycles decode is idle (Cycle)
system.cpu.decode.blockedCycles               7770291                       # Number of cycles decode is blocked (Cycle)
system.cpu.decode.runCycles                  14053679                       # Number of cycles decode is running (Cycle)
system.cpu.decode.unblockCycles               1314311                       # Number of cycles decode is unblocking (Cycle)
system.cpu.decode.squashCycles                 781116                       # Number of cycles decode is squashing (Cycle)
system.cpu.decode.branchResolved              6403001                       # Number of times decode resolved a branch (Count)
system.cpu.decode.branchMispred                 74919                       # Number of times decode detected a branch misprediction (Count)
system.cpu.decode.decodedInsts               86070700                       # Number of instructions handled by decode (Count)
system.cpu.decode.squashedInsts                359711                       # Number of squashed instructions handled by decode (Count)
system.cpu.decode.mispredictedByPC                  0                       # Number of instructions that mispredicted due to pc (Count)
system.cpu.decode.mispredictedByNPC                 0                       # Number of instructions that mispredicted due to npc (Count)
system.cpu.dtb_walker_cache.demandHits::cpu.mmu.dtb.walker        24819                       # number of demand (read+write) hits (Count)
system.cpu.dtb_walker_cache.demandHits::total        24819                       # number of demand (read+write) hits (Count)
system.cpu.dtb_walker_cache.overallHits::cpu.mmu.dtb.walker        24819                       # number of overall hits (Count)
system.cpu.dtb_walker_cache.overallHits::total        24819                       # number of overall hits (Count)
system.cpu.dtb_walker_cache.demandMisses::cpu.mmu.dtb.walker        41817                       # number of demand (read+write) misses (Count)
system.cpu.dtb_walker_cache.demandMisses::total        41817                       # number of demand (read+write) misses (Count)
system.cpu.dtb_walker_cache.overallMisses::cpu.mmu.dtb.walker        41817                       # number of overall misses (Count)
system.cpu.dtb_walker_cache.overallMisses::total        41817                       # number of overall misses (Count)
system.cpu.dtb_walker_cache.demandMissLatency::cpu.mmu.dtb.walker   3008821000                       # number of demand (read+write) miss ticks (Tick)
system.cpu.dtb_walker_cache.demandMissLatency::total   3008821000                       # number of demand (read+write) miss ticks (Tick)
system.cpu.dtb_walker_cache.overallMissLatency::cpu.mmu.dtb.walker   3008821000                       # number of overall miss ticks (Tick)
system.cpu.dtb_walker_cache.overallMissLatency::total   3008821000                       # number of overall miss ticks (Tick)
system.cpu.dtb_walker_cache.demandAccesses::cpu.mmu.dtb.walker        66636                       # number of demand (read+write) accesses (Count)
system.cpu.dtb_walker_cache.demandAccesses::total        66636                       # number of demand (read+write) accesses (Count)
system.cpu.dtb_walker_cache.overallAccesses::cpu.mmu.dtb.walker        66636                       # number of overall (read+write) accesses (Count)
system.cpu.dtb_walker_cache.overallAccesses::total        66636                       # number of overall (read+write) accesses (Count)
system.cpu.dtb_walker_cache.demandMissRate::cpu.mmu.dtb.walker     0.627544                       # miss rate for demand accesses (Ratio)
system.cpu.dtb_walker_cache.demandMissRate::total     0.627544                       # miss rate for demand accesses (Ratio)
system.cpu.dtb_walker_cache.overallMissRate::cpu.mmu.dtb.walker     0.627544                       # miss rate for overall accesses (Ratio)
system.cpu.dtb_walker_cache.overallMissRate::total     0.627544                       # miss rate for overall accesses (Ratio)
system.cpu.dtb_walker_cache.demandAvgMissLatency::cpu.mmu.dtb.walker 71952.100820                       # average overall miss latency in ticks ((Tick/Count))
system.cpu.dtb_walker_cache.demandAvgMissLatency::total 71952.100820                       # average overall miss latency in ticks ((Tick/Count))
system.cpu.dtb_walker_cache.overallAvgMissLatency::cpu.mmu.dtb.walker 71952.100820                       # average overall miss latency ((Tick/Count))
system.cpu.dtb_walker_cache.overallAvgMissLatency::total 71952.100820                       # average overall miss latency ((Tick/Count))
system.cpu.dtb_walker_cache.blockedCycles::no_mshrs            0                       # number of cycles access was blocked (Cycle)
system.cpu.dtb_walker_cache.blockedCycles::no_targets            0                       # number of cycles access was blocked (Cycle)
system.cpu.dtb_walker_cache.blockedCauses::no_mshrs            0                       # number of times access was blocked (Count)
system.cpu.dtb_walker_cache.blockedCauses::no_targets            0                       # number of times access was blocked (Count)
system.cpu.dtb_walker_cache.avgBlocked::no_mshrs          nan                       # average number of cycles each access was blocked ((Cycle/Count))
system.cpu.dtb_walker_cache.avgBlocked::no_targets          nan                       # average number of cycles each access was blocked ((Cycle/Count))
system.cpu.dtb_walker_cache.demandMshrMisses::cpu.mmu.dtb.walker        41817                       # number of demand (read+write) MSHR misses (Count)
system.cpu.dtb_walker_cache.demandMshrMisses::total        41817                       # number of demand (read+write) MSHR misses (Count)
system.cpu.dtb_walker_cache.overallMshrMisses::cpu.mmu.dtb.walker        41817                       # number of overall MSHR misses (Count)
system.cpu.dtb_walker_cache.overallMshrMisses::total        41817                       # number of overall MSHR misses (Count)
system.cpu.dtb_walker_cache.demandMshrMissLatency::cpu.mmu.dtb.walker   2967005000                       # number of demand (read+write) MSHR miss ticks (Tick)
system.cpu.dtb_walker_cache.demandMshrMissLatency::total   2967005000                       # number of demand (read+write) MSHR miss ticks (Tick)
system.cpu.dtb_walker_cache.overallMshrMissLatency::cpu.mmu.dtb.walker   2967005000                       # number of overall MSHR miss ticks (Tick)
system.cpu.dtb_walker_cache.overallMshrMissLatency::total   2967005000                       # number of overall MSHR miss ticks (Tick)
system.cpu.dtb_walker_cache.demandMshrMissRate::cpu.mmu.dtb.walker     0.627544                       # mshr miss ratio for demand accesses (Ratio)
system.cpu.dtb_walker_cache.demandMshrMissRate::total     0.627544                       # mshr miss ratio for demand accesses (Ratio)
system.cpu.dtb_walker_cache.overallMshrMissRate::cpu.mmu.dtb.walker     0.627544                       # mshr miss ratio for overall accesses (Ratio)
system.cpu.dtb_walker_cache.overallMshrMissRate::total     0.627544                       # mshr miss ratio for overall accesses (Ratio)
system.cpu.dtb_walker_cache.demandAvgMshrMissLatency::cpu.mmu.dtb.walker 70952.124734                       # average overall mshr miss latency ((Tick/Count))
system.cpu.dtb_walker_cache.demandAvgMshrMissLatency::total 70952.124734                       # average overall mshr miss latency ((Tick/Count))
system.cpu.dtb_walker_cache.overallAvgMshrMissLatency::cpu.mmu.dtb.walker 70952.124734                       # average overall mshr miss latency ((Tick/Count))
system.cpu.dtb_walker_cache.overallAvgMshrMissLatency::total 70952.124734                       # average overall mshr miss latency ((Tick/Count))
system.cpu.dtb_walker_cache.replacements        41800                       # number of replacements (Count)
system.cpu.dtb_walker_cache.ReadReq.hits::cpu.mmu.dtb.walker        24819                       # number of ReadReq hits (Count)
system.cpu.dtb_walker_cache.ReadReq.hits::total        24819                       # number of ReadReq hits (Count)
system.cpu.dtb_walker_cache.ReadReq.misses::cpu.mmu.dtb.walker        41817                       # number of ReadReq misses (Count)
system.cpu.dtb_walker_cache.ReadReq.misses::total        41817                       # number of ReadReq misses (Count)
system.cpu.dtb_walker_cache.ReadReq.missLatency::cpu.mmu.dtb.walker   3008821000                       # number of ReadReq miss ticks (Tick)
system.cpu.dtb_walker_cache.ReadReq.missLatency::total   3008821000                       # number of ReadReq miss ticks (Tick)
system.cpu.dtb_walker_cache.ReadReq.accesses::cpu.mmu.dtb.walker        66636                       # number of ReadReq accesses(hits+misses) (Count)
system.cpu.dtb_walker_cache.ReadReq.accesses::total        66636                       # number of ReadReq accesses(hits+misses) (Count)
system.cpu.dtb_walker_cache.ReadReq.missRate::cpu.mmu.dtb.walker     0.627544                       # miss rate for ReadReq accesses (Ratio)
system.cpu.dtb_walker_cache.ReadReq.missRate::total     0.627544                       # miss rate for ReadReq accesses (Ratio)
system.cpu.dtb_walker_cache.ReadReq.avgMissLatency::cpu.mmu.dtb.walker 71952.100820                       # average ReadReq miss latency ((Tick/Count))
system.cpu.dtb_walker_cache.ReadReq.avgMissLatency::total 71952.100820                       # average ReadReq miss latency ((Tick/Count))
system.cpu.dtb_walker_cache.ReadReq.mshrMisses::cpu.mmu.dtb.walker        41817                       # number of ReadReq MSHR misses (Count)
system.cpu.dtb_walker_cache.ReadReq.mshrMisses::total        41817                       # number of ReadReq MSHR misses (Count)
system.cpu.dtb_walker_cache.ReadReq.mshrMissLatency::cpu.mmu.dtb.walker   2967005000                       # number of ReadReq MSHR miss ticks (Tick)
system.cpu.dtb_walker_cache.ReadReq.mshrMissLatency::total   2967005000                       # number of ReadReq MSHR miss ticks (Tick)
system.cpu.dtb_walker_cache.ReadReq.mshrMissRate::cpu.mmu.dtb.walker     0.627544                       # mshr miss rate for ReadReq accesses (Ratio)
system.cpu.dtb_walker_cache.ReadReq.mshrMissRate::total     0.627544                       # mshr miss rate for ReadReq accesses (Ratio)
system.cpu.dtb_walker_cache.ReadReq.avgMshrMissLatency::cpu.mmu.dtb.walker 70952.124734                       # average ReadReq mshr miss latency ((Tick/Count))
system.cpu.dtb_walker_cache.ReadReq.avgMshrMissLatency::total 70952.124734                       # average ReadReq mshr miss latency ((Tick/Count))
system.cpu.dtb_walker_cache.power_state.pwrStateResidencyTicks::UNDEFINED  13181787000                       # Cumulative time (in ticks) in various power states (Tick)
system.cpu.dtb_walker_cache.tags.tagsInUse    15.986827                       # Average ticks per tags in use ((Tick/Count))
system.cpu.dtb_walker_cache.tags.totalRefs        66596                       # Total number of references to valid blocks. (Count)
system.cpu.dtb_walker_cache.tags.sampledRefs        41800                       # Sample count of references to valid blocks. (Count)
system.cpu.dtb_walker_cache.tags.avgRefs     1.593206                       # Average number of references to valid blocks. ((Count/Count))
system.cpu.dtb_walker_cache.tags.warmupTick      1802500                       # The tick when the warmup percentage was hit. (Tick)
system.cpu.dtb_walker_cache.tags.occupancies::cpu.mmu.dtb.walker    15.986827                       # Average occupied blocks per tick, per requestor ((Count/Tick))
system.cpu.dtb_walker_cache.tags.avgOccs::cpu.mmu.dtb.walker     0.999177                       # Average percentage of cache occupancy ((Ratio/Tick))
system.cpu.dtb_walker_cache.tags.avgOccs::total     0.999177                       # Average percentage of cache occupancy ((Ratio/Tick))
system.cpu.dtb_walker_cache.tags.occupanciesTaskId::1024           16                       # Occupied blocks per task id (Count)
system.cpu.dtb_walker_cache.tags.ageTaskId_1024::0            2                       # Occupied blocks per task id, per block age (Count)
system.cpu.dtb_walker_cache.tags.ageTaskId_1024::1            6                       # Occupied blocks per task id, per block age (Count)
system.cpu.dtb_walker_cache.tags.ageTaskId_1024::2            8                       # Occupied blocks per task id, per block age (Count)
system.cpu.dtb_walker_cache.tags.ratioOccsTaskId::1024            1                       # Ratio of occupied blocks and all blocks, per task id (Ratio)
system.cpu.dtb_walker_cache.tags.tagAccesses       175088                       # Number of tag accesses (Count)
system.cpu.dtb_walker_cache.tags.dataAccesses       175088                       # Number of data accesses (Count)
system.cpu.dtb_walker_cache.tags.power_state.pwrStateResidencyTicks::UNDEFINED  13181787000                       # Cumulative time (in ticks) in various power states (Tick)
system.cpu.fetch.icacheStallCycles             801685                       # Number of cycles fetch is stalled on an Icache miss (Cycle)
system.cpu.fetch.insts                       99442786                       # Number of instructions fetch has processed (Count)
system.cpu.fetch.branches                    15953269                       # Number of branches that fetch encountered (Count)
system.cpu.fetch.predictedBranches            8338193                       # Number of branches that fetch has predicted taken (Count)
system.cpu.fetch.cycles                      24567691                       # Number of cycles fetch has run and was not squashing or blocked (Cycle)
system.cpu.fetch.squashCycles                 1706850                       # Number of cycles fetch has spent squashing (Cycle)
system.cpu.fetch.tlbCycles                       3274                       # Number of cycles fetch has spent waiting for tlb (Cycle)
system.cpu.fetch.miscStallCycles                 3115                       # Number of cycles fetch has spent waiting on interrupts, or bad addresses, or out of MSHRs (Cycle)
system.cpu.fetch.pendingTrapStallCycles            35                       # Number of stall cycles due to pending traps (Cycle)
system.cpu.fetch.icacheWaitRetryStallCycles         3348                       # Number of stall cycles due to full MSHR (Cycle)
system.cpu.fetch.cacheLines                  11320669                       # Number of cache lines fetched (Count)
system.cpu.fetch.icacheSquashes                  1777                       # Number of outstanding Icache misses that were squashed (Count)
system.cpu.fetch.tlbSquashes                       43                       # Number of outstanding ITLB misses that were squashed (Count)
system.cpu.fetch.nisnDist::samples           26232573                       # Number of instructions fetched each cycle (Total) (Count)
system.cpu.fetch.nisnDist::mean              3.790814                       # Number of instructions fetched each cycle (Total) (Count)
system.cpu.fetch.nisnDist::stdev             3.200947                       # Number of instructions fetched each cycle (Total) (Count)
system.cpu.fetch.nisnDist::underflows               0      0.00%      0.00% # Number of instructions fetched each cycle (Total) (Count)
system.cpu.fetch.nisnDist::0                  7124721     27.16%     27.16% # Number of instructions fetched each cycle (Total) (Count)
system.cpu.fetch.nisnDist::1                  2171980      8.28%     35.44% # Number of instructions fetched each cycle (Total) (Count)
system.cpu.fetch.nisnDist::2                  2149720      8.19%     43.63% # Number of instructions fetched each cycle (Total) (Count)
system.cpu.fetch.nisnDist::3                  1695034      6.46%     50.10% # Number of instructions fetched each cycle (Total) (Count)
system.cpu.fetch.nisnDist::4                  1885046      7.19%     57.28% # Number of instructions fetched each cycle (Total) (Count)
system.cpu.fetch.nisnDist::5                  1305204      4.98%     62.26% # Number of instructions fetched each cycle (Total) (Count)
system.cpu.fetch.nisnDist::6                  2040065      7.78%     70.03% # Number of instructions fetched each cycle (Total) (Count)
system.cpu.fetch.nisnDist::7                  1306730      4.98%     75.02% # Number of instructions fetched each cycle (Total) (Count)
system.cpu.fetch.nisnDist::8                  6554073     24.98%    100.00% # Number of instructions fetched each cycle (Total) (Count)
system.cpu.fetch.nisnDist::overflows                0      0.00%    100.00% # Number of instructions fetched each cycle (Total) (Count)
system.cpu.fetch.nisnDist::min_value                0                       # Number of instructions fetched each cycle (Total) (Count)
system.cpu.fetch.nisnDist::max_value                8                       # Number of instructions fetched each cycle (Total) (Count)
system.cpu.fetch.nisnDist::total             26232573                       # Number of instructions fetched each cycle (Total) (Count)
system.cpu.fetch.branchRate                  0.605125                       # Number of branch fetches per cycle (Ratio)
system.cpu.fetch.rate                        3.771976                       # Number of inst fetches per cycle ((Count/Cycle))
system.cpu.icache.demandHits::cpu.inst       11317696                       # number of demand (read+write) hits (Count)
system.cpu.icache.demandHits::total          11317696                       # number of demand (read+write) hits (Count)
system.cpu.icache.overallHits::cpu.inst      11317696                       # number of overall hits (Count)
system.cpu.icache.overallHits::total         11317696                       # number of overall hits (Count)
system.cpu.icache.demandMisses::cpu.inst         2936                       # number of demand (read+write) misses (Count)
system.cpu.icache.demandMisses::total            2936                       # number of demand (read+write) misses (Count)
system.cpu.icache.overallMisses::cpu.inst         2936                       # number of overall misses (Count)
system.cpu.icache.overallMisses::total           2936                       # number of overall misses (Count)
system.cpu.icache.demandMissLatency::cpu.inst    183426969                       # number of demand (read+write) miss ticks (Tick)
system.cpu.icache.demandMissLatency::total    183426969                       # number of demand (read+write) miss ticks (Tick)
system.cpu.icache.overallMissLatency::cpu.inst    183426969                       # number of overall miss ticks (Tick)
system.cpu.icache.overallMissLatency::total    183426969                       # number of overall miss ticks (Tick)
system.cpu.icache.demandAccesses::cpu.inst     11320632                       # number of demand (read+write) accesses (Count)
system.cpu.icache.demandAccesses::total      11320632                       # number of demand (read+write) accesses (Count)
system.cpu.icache.overallAccesses::cpu.inst     11320632                       # number of overall (read+write) accesses (Count)
system.cpu.icache.overallAccesses::total     11320632                       # number of overall (read+write) accesses (Count)
system.cpu.icache.demandMissRate::cpu.inst     0.000259                       # miss rate for demand accesses (Ratio)
system.cpu.icache.demandMissRate::total      0.000259                       # miss rate for demand accesses (Ratio)
system.cpu.icache.overallMissRate::cpu.inst     0.000259                       # miss rate for overall accesses (Ratio)
system.cpu.icache.overallMissRate::total     0.000259                       # miss rate for overall accesses (Ratio)
system.cpu.icache.demandAvgMissLatency::cpu.inst 62475.125681                       # average overall miss latency in ticks ((Tick/Count))
system.cpu.icache.demandAvgMissLatency::total 62475.125681                       # average overall miss latency in ticks ((Tick/Count))
system.cpu.icache.overallAvgMissLatency::cpu.inst 62475.125681                       # average overall miss latency ((Tick/Count))
system.cpu.icache.overallAvgMissLatency::total 62475.125681                       # average overall miss latency ((Tick/Count))
system.cpu.icache.blockedCycles::no_mshrs        42512                       # number of cycles access was blocked (Cycle)
system.cpu.icache.blockedCycles::no_targets            0                       # number of cycles access was blocked (Cycle)
system.cpu.icache.blockedCauses::no_mshrs          439                       # number of times access was blocked (Count)
[...]
system.mem_ctrls.dram.bytesPerActivate::0-127        18976     68.25%     68.25% # Bytes accessed per row activation (Byte)
system.mem_ctrls.dram.bytesPerActivate::128-255         4167     14.99%     83.24% # Bytes accessed per row activation (Byte)
system.mem_ctrls.dram.bytesPerActivate::256-383         1681      6.05%     89.28% # Bytes accessed per row activation (Byte)
system.mem_ctrls.dram.bytesPerActivate::384-511         1515      5.45%     94.73% # Bytes accessed per row activation (Byte)
system.mem_ctrls.dram.bytesPerActivate::512-639          857      3.08%     97.81% # Bytes accessed per row activation (Byte)
system.mem_ctrls.dram.bytesPerActivate::640-767          356      1.28%     99.09% # Bytes accessed per row activation (Byte)
system.mem_ctrls.dram.bytesPerActivate::768-895          104      0.37%     99.47% # Bytes accessed per row activation (Byte)
system.mem_ctrls.dram.bytesPerActivate::896-1023           30      0.11%     99.58% # Bytes accessed per row activation (Byte)
system.mem_ctrls.dram.bytesPerActivate::1024-1151          118      0.42%    100.00% # Bytes accessed per row activation (Byte)
system.mem_ctrls.dram.bytesPerActivate::total        27804                       # Bytes accessed per row activation (Byte)
system.mem_ctrls.dram.bytesRead               3061312                       # Total bytes read (Byte)
system.mem_ctrls.dram.bytesWritten             790208                       # Total bytes written (Byte)
system.mem_ctrls.dram.avgRdBW              261.396697                       # Average DRAM read bandwidth in MiBytes/s ((Byte/Second))
system.mem_ctrls.dram.avgWrBW               67.473607                       # Average DRAM write bandwidth in MiBytes/s ((Byte/Second))
system.mem_ctrls.dram.peakBW                 19207.00                       # Theoretical peak bandwidth in MiByte/s ((Byte/Second))
system.mem_ctrls.dram.busUtil                    1.71                       # Data bus utilization in percentage (Ratio)
system.mem_ctrls.dram.busUtilRead                1.36                       # Data bus utilization in percentage for reads (Ratio)
system.mem_ctrls.dram.busUtilWrite               0.35                       # Data bus utilization in percentage for writes (Ratio)
system.mem_ctrls.dram.pageHitRate               53.79                       # Row buffer hit rate, read and write combined (Ratio)
system.mem_ctrls.dram.power_state.pwrStateResidencyTicks::UNDEFINED  11711364500                       # Cumulative time (in ticks) in various power states (Tick)
system.mem_ctrls.dram.rank0.actEnergy    43484759.136000                       # Energy for activate commands per rank (pJ) (Joule)
system.mem_ctrls.dram.rank0.preEnergy    57804137.092799                       # Energy for precharge commands per rank (pJ) (Joule)
system.mem_ctrls.dram.rank0.readEnergy   119122891.776000                       # Energy for read commands per rank (pJ) (Joule)
system.mem_ctrls.dram.rank0.writeEnergy  25087960.800000                       # Energy for write commands per rank (pJ) (Joule)
system.mem_ctrls.dram.rank0.refreshEnergy 2083607951.308724                       # Energy for refresh commands per rank (pJ) (Joule)
system.mem_ctrls.dram.rank0.actBackEnergy 9287519017.795177                       # Energy for active background per rank (pJ) (Joule)
system.mem_ctrls.dram.rank0.preBackEnergy 509005884.172797                       # Energy for precharge background per rank (pJ) (Joule)
system.mem_ctrls.dram.rank0.actPowerDownEnergy            0                       # Energy for active power-down per rank (pJ) (Joule)
system.mem_ctrls.dram.rank0.prePowerDownEnergy            0                       # Energy for precharge power-down per rank (pJ) (Joule)
system.mem_ctrls.dram.rank0.selfRefreshEnergy            0                       # Energy for self refresh per rank (pJ) (Joule)
system.mem_ctrls.dram.rank0.totalEnergy  12125632602.081585                       # Total energy per rank (pJ) (Joule)
system.mem_ctrls.dram.rank0.averagePower  1035.373171                       # Core power per rank (mW) (Watt)
system.mem_ctrls.dram.rank0.totalIdleTime            0                       # Total Idle time Per DRAM Rank (Tick)
system.mem_ctrls.dram.rank0.pwrStateTime::IDLE    737782152                       # Time in different power states (Tick)
system.mem_ctrls.dram.rank0.pwrStateTime::REF    526404280                       # Time in different power states (Tick)
system.mem_ctrls.dram.rank0.pwrStateTime::SREF            0                       # Time in different power states (Tick)
system.mem_ctrls.dram.rank0.pwrStateTime::PRE_PDN            0                       # Time in different power states (Tick)
system.mem_ctrls.dram.rank0.pwrStateTime::ACT  10447178068                       # Time in different power states (Tick)
system.mem_ctrls.dram.rank0.pwrStateTime::ACT_PDN            0                       # Time in different power states (Tick)
system.mem_ctrls.dram.rank1.actEnergy    43244615.231999                       # Energy for activate commands per rank (pJ) (Joule)
system.mem_ctrls.dram.rank1.preEnergy    57480722.510401                       # Energy for precharge commands per rank (pJ) (Joule)
system.mem_ctrls.dram.rank1.readEnergy   82077859.718400                       # Energy for read commands per rank (pJ) (Joule)
system.mem_ctrls.dram.rank1.writeEnergy  21318189.312000                       # Energy for write commands per rank (pJ) (Joule)
system.mem_ctrls.dram.rank1.refreshEnergy 2083607951.308724                       # Energy for refresh commands per rank (pJ) (Joule)
system.mem_ctrls.dram.rank1.actBackEnergy 9255763764.979204                       # Energy for active background per rank (pJ) (Joule)
system.mem_ctrls.dram.rank1.preBackEnergy 533405400.460800                       # Energy for precharge background per rank (pJ) (Joule)
system.mem_ctrls.dram.rank1.actPowerDownEnergy            0                       # Energy for active power-down per rank (pJ) (Joule)
system.mem_ctrls.dram.rank1.prePowerDownEnergy            0                       # Energy for precharge power-down per rank (pJ) (Joule)
system.mem_ctrls.dram.rank1.selfRefreshEnergy            0                       # Energy for self refresh per rank (pJ) (Joule)
system.mem_ctrls.dram.rank1.totalEnergy  12076898503.521595                       # Total energy per rank (pJ) (Joule)
system.mem_ctrls.dram.rank1.averagePower  1031.211906                       # Core power per rank (mW) (Watt)
system.mem_ctrls.dram.rank1.totalIdleTime            0                       # Total Idle time Per DRAM Rank (Tick)
system.mem_ctrls.dram.rank1.pwrStateTime::IDLE    774589748                       # Time in different power states (Tick)
system.mem_ctrls.dram.rank1.pwrStateTime::REF    526404280                       # Time in different power states (Tick)
system.mem_ctrls.dram.rank1.pwrStateTime::SREF            0                       # Time in different power states (Tick)
system.mem_ctrls.dram.rank1.pwrStateTime::PRE_PDN            0                       # Time in different power states (Tick)
system.mem_ctrls.dram.rank1.pwrStateTime::ACT  10410370472                       # Time in different power states (Tick)
system.mem_ctrls.dram.rank1.pwrStateTime::ACT_PDN            0                       # Time in different power states (Tick)
system.mem_ctrls.power_state.pwrStateResidencyTicks::UNDEFINED  11711364500                       # Cumulative time (in ticks) in various power states (Tick)
system.membus.transDist::ReadResp               47080                       # Transaction distribution (Count)
system.membus.transDist::WritebackDirty          6923                       # Transaction distribution (Count)
system.membus.transDist::WritebackClean          5428                       # Transaction distribution (Count)
system.membus.transDist::CleanEvict             16290                       # Transaction distribution (Count)
system.membus.transDist::ReadExReq                754                       # Transaction distribution (Count)
system.membus.transDist::ReadExResp               754                       # Transaction distribution (Count)
system.membus.transDist::ReadCleanReq           47079                       # Transaction distribution (Count)
system.membus.pktCount_system.l2.mem_side_port::system.mem_ctrls.port       124308                       # Packet count per connected requestor and responder (Count)
system.membus.pktCount_system.l2.mem_side_port::total       124308                       # Packet count per connected requestor and responder (Count)
system.membus.pktCount::total                  124308                       # Packet count per connected requestor and responder (Count)
system.membus.pktSize_system.l2.mem_side_port::system.mem_ctrls.port      3851840                       # Cumulative packet size per connected requestor and responder (Byte)
system.membus.pktSize_system.l2.mem_side_port::total      3851840                       # Cumulative packet size per connected requestor and responder (Byte)
system.membus.pktSize::total                  3851840                       # Cumulative packet size per connected requestor and responder (Byte)
system.membus.snoops                                0                       # Total snoops (Count)
system.membus.snoopTraffic                          0                       # Total snoop traffic (Byte)
system.membus.snoopFanout::samples              47833                       # Request fanout histogram (Count)
system.membus.snoopFanout::mean                     0                       # Request fanout histogram (Count)
system.membus.snoopFanout::stdev                    0                       # Request fanout histogram (Count)
system.membus.snoopFanout::underflows               0      0.00%      0.00% # Request fanout histogram (Count)
system.membus.snoopFanout::0                    47833    100.00%    100.00% # Request fanout histogram (Count)
system.membus.snoopFanout::1                        0      0.00%    100.00% # Request fanout histogram (Count)
system.membus.snoopFanout::2                        0      0.00%    100.00% # Request fanout histogram (Count)
system.membus.snoopFanout::overflows                0      0.00%    100.00% # Request fanout histogram (Count)
system.membus.snoopFanout::min_value                0                       # Request fanout histogram (Count)
system.membus.snoopFanout::max_value                0                       # Request fanout histogram (Count)
system.membus.snoopFanout::total                47833                       # Request fanout histogram (Count)
system.membus.badaddr_responder.power_state.pwrStateResidencyTicks::UNDEFINED  11711364500                       # Cumulative time (in ticks) in various power states (Tick)
system.membus.power_state.pwrStateResidencyTicks::UNDEFINED  11711364500                       # Cumulative time (in ticks) in various power states (Tick)
system.membus.reqLayer1.occupancy           134619500                       # Layer occupancy (ticks) (Tick)
system.membus.reqLayer1.utilization               0.0                       # Layer utilization (Ratio)
system.membus.respLayer2.occupancy          258618376                       # Layer occupancy (ticks) (Tick)
system.membus.respLayer2.utilization              0.0                       # Layer utilization (Ratio)
system.membus.snoop_filter.totRequests          76474                       # Total number of requests made to the snoop filter. (Count)
system.membus.snoop_filter.hitSingleRequests        47137                       # Number of requests hitting in the snoop filter with a single holder of the requested data. (Count)
system.membus.snoop_filter.hitMultiRequests            0                       # Number of requests hitting in the snoop filter with multiple (>1) holders of the requested data. (Count)
system.membus.snoop_filter.totSnoops                0                       # Total number of snoops made to the snoop filter. (Count)
system.membus.snoop_filter.hitSingleSnoops            0                       # Number of snoops hitting in the snoop filter with a single holder of the requested data. (Count)
system.membus.snoop_filter.hitMultiSnoops            0                       # Number of snoops hitting in the snoop filter with multiple (>1) holders of the requested data. (Count)
system.mmcs.power_state.pwrStateResidencyTicks::UNDEFINED  11711364500                       # Cumulative time (in ticks) in various power states (Tick)
system.tol2bus.transDist::ReadResp              61497                       # Transaction distribution (Count)
system.tol2bus.transDist::WritebackDirty        22249                       # Transaction distribution (Count)
system.tol2bus.transDist::WritebackClean        23985                       # Transaction distribution (Count)
system.tol2bus.transDist::CleanEvict            34786                       # Transaction distribution (Count)
system.tol2bus.transDist::ReadExReq              7220                       # Transaction distribution (Count)
system.tol2bus.transDist::ReadExResp             7220                       # Transaction distribution (Count)
system.tol2bus.transDist::ReadCleanReq            177                       # Transaction distribution (Count)
system.tol2bus.transDist::ReadSharedReq         61319                       # Transaction distribution (Count)
system.tol2bus.transDist::InvalidateReq            17                       # Transaction distribution (Count)
system.tol2bus.transDist::InvalidateResp           17                       # Transaction distribution (Count)
system.tol2bus.pktCount_system.cpu.icache.mem_side_port::system.l2.cpu_side_port          466                       # Packet count per connected requestor and responder (Count)
system.tol2bus.pktCount_system.cpu.dcache.mem_side_port::system.l2.cpu_side_port       101313                       # Packet count per connected requestor and responder (Count)
system.tol2bus.pktCount_system.cpu.itb_walker_cache.mem_side_port::system.l2.cpu_side_port           33                       # Packet count per connected requestor and responder (Count)
system.tol2bus.pktCount_system.cpu.dtb_walker_cache.mem_side_port::system.l2.cpu_side_port       104324                       # Packet count per connected requestor and responder (Count)
system.tol2bus.pktCount::total                 206136                       # Packet count per connected requestor and responder (Count)
system.tol2bus.pktSize_system.cpu.icache.mem_side_port::system.l2.cpu_side_port        18496                       # Cumulative packet size per connected requestor and responder (Byte)
system.tol2bus.pktSize_system.cpu.dcache.mem_side_port::system.l2.cpu_side_port      4321600                       # Cumulative packet size per connected requestor and responder (Byte)
system.tol2bus.pktSize_system.cpu.itb_walker_cache.mem_side_port::system.l2.cpu_side_port          704                       # Cumulative packet size per connected requestor and responder (Byte)
system.tol2bus.pktSize_system.cpu.dtb_walker_cache.mem_side_port::system.l2.cpu_side_port      2225600                       # Cumulative packet size per connected requestor and responder (Byte)
system.tol2bus.pktSize::total                 6566400                       # Cumulative packet size per connected requestor and responder (Byte)
system.tol2bus.snoops                           12351                       # Total snoops (Count)
system.tol2bus.snoopTraffic                    790464                       # Total snoop traffic (Byte)
system.tol2bus.snoopFanout::samples             81110                       # Request fanout histogram (Count)
system.tol2bus.snoopFanout::mean             0.228036                       # Request fanout histogram (Count)
system.tol2bus.snoopFanout::stdev            0.419569                       # Request fanout histogram (Count)
system.tol2bus.snoopFanout::underflows              0      0.00%      0.00% # Request fanout histogram (Count)
system.tol2bus.snoopFanout::0                   62614     77.20%     77.20% # Request fanout histogram (Count)
system.tol2bus.snoopFanout::1                   18496     22.80%    100.00% # Request fanout histogram (Count)
system.tol2bus.snoopFanout::2                       0      0.00%    100.00% # Request fanout histogram (Count)
system.tol2bus.snoopFanout::3                       0      0.00%    100.00% # Request fanout histogram (Count)
system.tol2bus.snoopFanout::4                       0      0.00%    100.00% # Request fanout histogram (Count)
system.tol2bus.snoopFanout::overflows               0      0.00%    100.00% # Request fanout histogram (Count)
system.tol2bus.snoopFanout::min_value               0                       # Request fanout histogram (Count)
system.tol2bus.snoopFanout::max_value               1                       # Request fanout histogram (Count)
system.tol2bus.snoopFanout::total               81110                       # Request fanout histogram (Count)
system.tol2bus.power_state.pwrStateResidencyTicks::UNDEFINED  11711364500                       # Cumulative time (in ticks) in various power states (Tick)
system.tol2bus.reqLayer0.occupancy           85753395                       # Layer occupancy (ticks) (Tick)
system.tol2bus.reqLayer0.utilization              0.0                       # Layer utilization (Ratio)
system.tol2bus.respLayer0.occupancy            177000                       # Layer occupancy (ticks) (Tick)
system.tol2bus.respLayer0.utilization             0.0                       # Layer utilization (Ratio)
system.tol2bus.respLayer1.occupancy          33766492                       # Layer occupancy (ticks) (Tick)
system.tol2bus.respLayer1.utilization             0.0                       # Layer utilization (Ratio)
system.tol2bus.respLayer2.occupancy             11000                       # Layer occupancy (ticks) (Tick)
system.tol2bus.respLayer2.utilization             0.0                       # Layer utilization (Ratio)
system.tol2bus.respLayer3.occupancy          34775998                       # Layer occupancy (ticks) (Tick)
system.tol2bus.respLayer3.utilization             0.0                       # Layer utilization (Ratio)
system.tol2bus.snoop_filter.totRequests        137519                       # Total number of requests made to the snoop filter. (Count)
system.tol2bus.snoop_filter.hitSingleRequests        68760                       # Number of requests hitting in the snoop filter with a single holder of the requested data. (Count)
system.tol2bus.snoop_filter.hitMultiRequests        18496                       # Number of requests hitting in the snoop filter with multiple (>1) holders of the requested data. (Count)
system.tol2bus.snoop_filter.totSnoops               0                       # Total number of snoops made to the snoop filter. (Count)
system.tol2bus.snoop_filter.hitSingleSnoops            0                       # Number of snoops hitting in the snoop filter with a single holder of the requested data. (Count)
system.tol2bus.snoop_filter.hitMultiSnoops            0                       # Number of snoops hitting in the snoop filter with multiple (>1) holders of the requested data. (Count)
system.uartlite.power_state.pwrStateResidencyTicks::UNDEFINED  11711364500                       # Cumulative time (in ticks) in various power states (Tick)
system.voltage_domain.voltage                       1                       # Voltage in Volts (Volt)
system.workload.inst.arm                            0                       # number of arm instructions executed (Count)
system.workload.inst.quiesce                        0                       # number of quiesce instructions executed (Count)

---------- End Simulation Statistics   ----------
