
---------- Begin Simulation Statistics ----------
simSeconds                                   0.113776                       # Number of seconds simulated (Second)
simTicks                                 113775719500                       # Number of ticks simulated (Tick)
finalTick                                113775719500                       # Number of ticks from beginning of simulation (restored from checkpoints and never reset) (Tick)
simFreq                                  1000000000000                       # The number of ticks per simulated second ((Tick/Second))
hostSeconds                                   1418.50                       # Real time elapsed on the host (Second)
hostTickRate                                 80208739                       # The number of ticks simulated per host second (ticks/s) ((Tick/Second))
hostMemory                                   23803452                       # Number of bytes of host memory used (Byte)
simInsts                                     50000007                       # Number of instructions simulated (Count)
simOps                                       50000007                       # Number of ops (including micro ops) simulated (Count)
hostInstRate                                    35249                       # Simulator instruction rate (inst/s) ((Count/Second))
hostOpRate                                      35249                       # Simulator op (including micro ops) rate (op/s) ((Count/Second))
system.bridge.power_state.pwrStateResidencyTicks::UNDEFINED 113775719500                       # Cumulative time (in ticks) in various power states (Tick)
system.clk_domain.clock                          1000                       # Clock period in ticks (Tick)
system.cpu.numCycles                        227551440                       # Number of cpu cycles simulated (Cycle)
system.cpu.numWorkItemsStarted                      0                       # Number of work items this cpu started (Count)
system.cpu.numWorkItemsCompleted                    0                       # Number of work items this cpu completed (Count)
system.cpu.instsAdded                        70521568                       # Number of instructions added to the IQ (excludes non-spec) (Count)
system.cpu.nonSpecInstsAdded                     4388                       # Number of non-speculative instructions added to the IQ (Count)
system.cpu.instsIssued                       67124820                       # Number of instructions issued (Count)
system.cpu.squashedInstsIssued                1128661                       # Number of squashed instructions issued (Count)
system.cpu.squashedInstsExamined             20525883                       # Number of squashed instructions iterated over during squash; mainly for profiling (Count)
system.cpu.squashedOperandsExamined           9786332                       # Number of squashed operands that are examined and possibly removed from graph (Count)
system.cpu.squashedNonSpecRemoved                 127                       # Number of squashed non-spec instructions that were removed (Count)
system.cpu.numIssuedDist::samples           227522848                       # Number of insts issued each cycle (Count)
system.cpu.numIssuedDist::mean               0.295025                       # Number of insts issued each cycle (Count)
system.cpu.numIssuedDist::stdev              1.119836                       # Number of insts issued each cycle (Count)
system.cpu.numIssuedDist::underflows                0      0.00%      0.00% # Number of insts issued each cycle (Count)
system.cpu.numIssuedDist::0                 206066903     90.57%     90.57% # Number of insts issued each cycle (Count)
system.cpu.numIssuedDist::1                   6703375      2.95%     93.52% # Number of insts issued each cycle (Count)
system.cpu.numIssuedDist::2                   3862628      1.70%     95.21% # Number of insts issued each cycle (Count)
system.cpu.numIssuedDist::3                   2863079      1.26%     96.47% # Number of insts issued each cycle (Count)
system.cpu.numIssuedDist::4                   2507395      1.10%     97.57% # Number of insts issued each cycle (Count)
system.cpu.numIssuedDist::5                   1963242      0.86%     98.44% # Number of insts issued each cycle (Count)
system.cpu.numIssuedDist::6                   1617487      0.71%     99.15% # Number of insts issued each cycle (Count)
system.cpu.numIssuedDist::7                    953672      0.42%     99.57% # Number of insts issued each cycle (Count)
system.cpu.numIssuedDist::8                    985067      0.43%    100.00% # Number of insts issued each cycle (Count)
system.cpu.numIssuedDist::overflows                 0      0.00%    100.00% # Number of insts issued each cycle (Count)
system.cpu.numIssuedDist::min_value                 0                       # Number of insts issued each cycle (Count)
system.cpu.numIssuedDist::max_value                 8                       # Number of insts issued each cycle (Count)
system.cpu.numIssuedDist::total             227522848                       # Number of insts issued each cycle (Count)
system.cpu.statFuBusy::No_OpClass                   0      0.00%      0.00% # attempts to use FU when none available (Count)
system.cpu.statFuBusy::IntAlu                  164341      8.81%      8.81% # attempts to use FU when none available (Count)
system.cpu.statFuBusy::IntMult                      0      0.00%      8.81% # attempts to use FU when none available (Count)
system.cpu.statFuBusy::IntDiv                       0      0.00%      8.81% # attempts to use FU when none available (Count)
system.cpu.statFuBusy::FloatAdd                     0      0.00%      8.81% # attempts to use FU when none available (Count)
system.cpu.statFuBusy::FloatCmp                   227      0.01%      8.83% # attempts to use FU when none available (Count)
system.cpu.statFuBusy::FloatCvt                     0      0.00%      8.83% # attempts to use FU when none available (Count)
system.cpu.statFuBusy::FloatMult                    0      0.00%      8.83% # attempts to use FU when none available (Count)
system.cpu.statFuBusy::FloatMultAcc                 9      0.00%      8.83% # attempts to use FU when none available (Count)
system.cpu.statFuBusy::FloatDiv                     0      0.00%      8.83% # attempts to use FU when none available (Count)
system.cpu.statFuBusy::FloatMisc                    0      0.00%      8.83% # attempts to use FU when none available (Count)
system.cpu.statFuBusy::FloatSqrt                    0      0.00%      8.83% # attempts to use FU when none available (Count)
system.cpu.statFuBusy::SimdAdd                      0      0.00%      8.83% # attempts to use FU when none available (Count)
system.cpu.statFuBusy::SimdAddAcc                   0      0.00%      8.83% # attempts to use FU when none available (Count)
system.cpu.statFuBusy::SimdAlu                      0      0.00%      8.83% # attempts to use FU when none available (Count)
system.cpu.statFuBusy::SimdCmp                      0      0.00%      8.83% # attempts to use FU when none available (Count)
system.cpu.statFuBusy::SimdCvt                      0      0.00%      8.83% # attempts to use FU when none available (Count)
system.cpu.statFuBusy::SimdMisc                     0      0.00%      8.83% # attempts to use FU when none available (Count)
system.cpu.statFuBusy::SimdMult                     0      0.00%      8.83% # attempts to use FU when none available (Count)
system.cpu.statFuBusy::SimdMultAcc                  0      0.00%      8.83% # attempts to use FU when none available (Count)
system.cpu.statFuBusy::SimdShift                    0      0.00%      8.83% # attempts to use FU when none available (Count)
system.cpu.statFuBusy::SimdShiftAcc                 0      0.00%      8.83% # attempts to use FU when none available (Count)
system.cpu.statFuBusy::SimdDiv                      0      0.00%      8.83% # attempts to use FU when none available (Count)
system.cpu.statFuBusy::SimdSqrt                     0      0.00%      8.83% # attempts to use FU when none available (Count)
system.cpu.statFuBusy::SimdFloatAdd                 0      0.00%      8.83% # attempts to use FU when none available (Count)
system.cpu.statFuBusy::SimdFloatAlu                 0      0.00%      8.83% # attempts to use FU when none available (Count)
system.cpu.statFuBusy::SimdFloatCmp                 0      0.00%      8.83% # attempts to use FU when none available (Count)
system.cpu.statFuBusy::SimdFloatCvt                 0      0.00%      8.83% # attempts to use FU when none available (Count)
system.cpu.statFuBusy::SimdFloatDiv                 0      0.00%      8.83% # attempts to use FU when none available (Count)
system.cpu.statFuBusy::SimdFloatMisc                0      0.00%      8.83% # attempts to use FU when none available (Count)
system.cpu.statFuBusy::SimdFloatMult                0      0.00%      8.83% # attempts to use FU when none available (Count)
system.cpu.statFuBusy::SimdFloatMultAcc             0      0.00%      8.83% # attempts to use FU when none available (Count)
system.cpu.statFuBusy::SimdFloatSqrt                0      0.00%      8.83% # attempts to use FU when none available (Count)
system.cpu.statFuBusy::SimdReduceAdd                0      0.00%      8.83% # attempts to use FU when none available (Count)
system.cpu.statFuBusy::SimdReduceAlu                0      0.00%      8.83% # attempts to use FU when none available (Count)
system.cpu.statFuBusy::SimdReduceCmp                0      0.00%      8.83% # attempts to use FU when none available (Count)
system.cpu.statFuBusy::SimdFloatReduceAdd            0      0.00%      8.83% # attempts to use FU when none available (Count)
system.cpu.statFuBusy::SimdFloatReduceCmp            0      0.00%      8.83% # attempts to use FU when none available (Count)
system.cpu.statFuBusy::SimdAes                      0      0.00%      8.83% # attempts to use FU when none available (Count)
system.cpu.statFuBusy::SimdAesMix                   0      0.00%      8.83% # attempts to use FU when none available (Count)
system.cpu.statFuBusy::SimdSha1Hash                 0      0.00%      8.83% # attempts to use FU when none available (Count)
system.cpu.statFuBusy::SimdSha1Hash2                0      0.00%      8.83% # attempts to use FU when none available (Count)
system.cpu.statFuBusy::SimdSha256Hash               0      0.00%      8.83% # attempts to use FU when none available (Count)
system.cpu.statFuBusy::SimdSha256Hash2              0      0.00%      8.83% # attempts to use FU when none available (Count)
system.cpu.statFuBusy::SimdShaSigma2                0      0.00%      8.83% # attempts to use FU when none available (Count)
system.cpu.statFuBusy::SimdShaSigma3                0      0.00%      8.83% # attempts to use FU when none available (Count)
system.cpu.statFuBusy::SimdPredAlu                  0      0.00%      8.83% # attempts to use FU when none available (Count)
system.cpu.statFuBusy::MemRead                 852231     45.71%     54.54% # attempts to use FU when none available (Count)
system.cpu.statFuBusy::MemWrite                669227     35.89%     90.43% # attempts to use FU when none available (Count)
system.cpu.statFuBusy::FloatMemRead            126914      6.81%     97.24% # attempts to use FU when none available (Count)
system.cpu.statFuBusy::FloatMemWrite            51470      2.76%    100.00% # attempts to use FU when none available (Count)
system.cpu.statFuBusy::IprAccess                    0      0.00%    100.00% # attempts to use FU when none available (Count)
system.cpu.statFuBusy::InstPrefetch                 0      0.00%    100.00% # attempts to use FU when none available (Count)
system.cpu.statIssuedInstType_0::No_OpClass           69      0.00%      0.00% # Number of instructions issued per FU type, per thread (Count)
system.cpu.statIssuedInstType_0::IntAlu      35893121     53.47%     53.47% # Number of instructions issued per FU type, per thread (Count)
system.cpu.statIssuedInstType_0::IntMult           90      0.00%     53.47% # Number of instructions issued per FU type, per thread (Count)
system.cpu.statIssuedInstType_0::IntDiv         23804      0.04%     53.51% # Number of instructions issued per FU type, per thread (Count)
system.cpu.statIssuedInstType_0::FloatAdd        47733      0.07%     53.58% # Number of instructions issued per FU type, per thread (Count)
system.cpu.statIssuedInstType_0::FloatCmp      1544048      2.30%     55.88% # Number of instructions issued per FU type, per thread (Count)
system.cpu.statIssuedInstType_0::FloatCvt        89184      0.13%     56.01% # Number of instructions issued per FU type, per thread (Count)
system.cpu.statIssuedInstType_0::FloatMult           33      0.00%     56.01% # Number of instructions issued per FU type, per thread (Count)
system.cpu.statIssuedInstType_0::FloatMultAcc        15921      0.02%     56.04% # Number of instructions issued per FU type, per thread (Count)
system.cpu.statIssuedInstType_0::FloatDiv            9      0.00%     56.04% # Number of instructions issued per FU type, per thread (Count)
system.cpu.statIssuedInstType_0::FloatMisc       369463      0.55%     56.59% # Number of instructions issued per FU type, per thread (Count)
system.cpu.statIssuedInstType_0::FloatSqrt            3      0.00%     56.59% # Number of instructions issued per FU type, per thread (Count)
system.cpu.statIssuedInstType_0::SimdAdd            0      0.00%     56.59% # Number of instructions issued per FU type, per thread (Count)
system.cpu.statIssuedInstType_0::SimdAddAcc            0      0.00%     56.59% # Number of instructions issued per FU type, per thread (Count)
system.cpu.statIssuedInstType_0::SimdAlu            0      0.00%     56.59% # Number of instructions issued per FU type, per thread (Count)
system.cpu.statIssuedInstType_0::SimdCmp            0      0.00%     56.59% # Number of instructions issued per FU type, per thread (Count)
system.cpu.statIssuedInstType_0::SimdCvt            0      0.00%     56.59% # Number of instructions issued per FU type, per thread (Count)
system.cpu.statIssuedInstType_0::SimdMisc            0      0.00%     56.59% # Number of instructions issued per FU type, per thread (Count)
system.cpu.statIssuedInstType_0::SimdMult            0      0.00%     56.59% # Number of instructions issued per FU type, per thread (Count)
system.cpu.statIssuedInstType_0::SimdMultAcc            0      0.00%     56.59% # Number of instructions issued per FU type, per thread (Count)
system.cpu.statIssuedInstType_0::SimdShift            0      0.00%     56.59% # Number of instructions issued per FU type, per thread (Count)
system.cpu.statIssuedInstType_0::SimdShiftAcc            0      0.00%     56.59% # Number of instructions issued per FU type, per thread (Count)
system.cpu.statIssuedInstType_0::SimdDiv            0      0.00%     56.59% # Number of instructions issued per FU type, per thread (Count)
system.cpu.statIssuedInstType_0::SimdSqrt            0      0.00%     56.59% # Number of instructions issued per FU type, per thread (Count)
system.cpu.statIssuedInstType_0::SimdFloatAdd            0      0.00%     56.59% # Number of instructions issued per FU type, per thread (Count)
system.cpu.statIssuedInstType_0::SimdFloatAlu            0      0.00%     56.59% # Number of instructions issued per FU type, per thread (Count)
system.cpu.statIssuedInstType_0::SimdFloatCmp            0      0.00%     56.59% # Number of instructions issued per FU type, per thread (Count)
system.cpu.statIssuedInstType_0::SimdFloatCvt            0      0.00%     56.59% # Number of instructions issued per FU type, per thread (Count)
system.cpu.statIssuedInstType_0::SimdFloatDiv            0      0.00%     56.59% # Number of instructions issued per FU type, per thread (Count)
system.cpu.statIssuedInstType_0::SimdFloatMisc            0      0.00%     56.59% # Number of instructions issued per FU type, per thread (Count)
system.cpu.statIssuedInstType_0::SimdFloatMult            0      0.00%     56.59% # Number of instructions issued per FU type, per thread (Count)
system.cpu.statIssuedInstType_0::SimdFloatMultAcc            0      0.00%     56.59% # Number of instructions issued per FU type, per thread (Count)
system.cpu.statIssuedInstType_0::SimdFloatSqrt            0      0.00%     56.59% # Number of instructions issued per FU type, per thread (Count)
system.cpu.statIssuedInstType_0::SimdReduceAdd            0      0.00%     56.59% # Number of instructions issued per FU type, per thread (Count)
system.cpu.statIssuedInstType_0::SimdReduceAlu            0      0.00%     56.59% # Number of instructions issued per FU type, per thread (Count)
system.cpu.statIssuedInstType_0::SimdReduceCmp            0      0.00%     56.59% # Number of instructions issued per FU type, per thread (Count)
system.cpu.statIssuedInstType_0::SimdFloatReduceAdd            0      0.00%     56.59% # Number of instructions issued per FU type, per thread (Count)
system.cpu.statIssuedInstType_0::SimdFloatReduceCmp            0      0.00%     56.59% # Number of instructions issued per FU type, per thread (Count)
system.cpu.statIssuedInstType_0::SimdAes            0      0.00%     56.59% # Number of instructions issued per FU type, per thread (Count)
system.cpu.statIssuedInstType_0::SimdAesMix            0      0.00%     56.59% # Number of instructions issued per FU type, per thread (Count)
system.cpu.statIssuedInstType_0::SimdSha1Hash            0      0.00%     56.59% # Number of instructions issued per FU type, per thread (Count)
system.cpu.statIssuedInstType_0::SimdSha1Hash2            0      0.00%     56.59% # Number of instructions issued per FU type, per thread (Count)
system.cpu.statIssuedInstType_0::SimdSha256Hash            0      0.00%     56.59% # Number of instructions issued per FU type, per thread (Count)
system.cpu.statIssuedInstType_0::SimdSha256Hash2            0      0.00%     56.59% # Number of instructions issued per FU type, per thread (Count)
system.cpu.statIssuedInstType_0::SimdShaSigma2            0      0.00%     56.59% # Number of instructions issued per FU type, per thread (Count)
system.cpu.statIssuedInstType_0::SimdShaSigma3            0      0.00%     56.59% # Number of instructions issued per FU type, per thread (Count)
system.cpu.statIssuedInstType_0::SimdPredAlu            0      0.00%     56.59% # Number of instructions issued per FU type, per thread (Count)
system.cpu.statIssuedInstType_0::MemRead     16587957     24.71%     81.30% # Number of instructions issued per FU type, per thread (Count)
system.cpu.statIssuedInstType_0::MemWrite      9812200     14.62%     95.92% # Number of instructions issued per FU type, per thread (Count)
system.cpu.statIssuedInstType_0::FloatMemRead      2446113      3.64%     99.56% # Number of instructions issued per FU type, per thread (Count)
system.cpu.statIssuedInstType_0::FloatMemWrite       295072      0.44%    100.00% # Number of instructions issued per FU type, per thread (Count)
system.cpu.statIssuedInstType_0::IprAccess            0      0.00%    100.00% # Number of instructions issued per FU type, per thread (Count)
system.cpu.statIssuedInstType_0::InstPrefetch            0      0.00%    100.00% # Number of instructions issued per FU type, per thread (Count)
system.cpu.statIssuedInstType_0::total       67124820                       # Number of instructions issued per FU type, per thread (Count)
system.cpu.issueRate                         0.294987                       # Inst issue rate ((Count/Cycle))
system.cpu.fuBusy                             1864419                       # FU busy when requested (Count)
system.cpu.fuBusyRate                        0.027775                       # FU busy rate (busy events/executed inst) ((Count/Count))
system.cpu.intInstQueueReads                354646568                       # Number of integer instruction queue reads (Count)
system.cpu.intInstQueueWrites                82878196                       # Number of integer instruction queue writes (Count)
system.cpu.intInstQueueWakeupAccesses        59108551                       # Number of integer instruction queue wakeup accesses (Count)
system.cpu.fpInstQueueReads                  10118993                       # Number of floating instruction queue reads (Count)
system.cpu.fpInstQueueWrites                  8181840                       # Number of floating instruction queue writes (Count)
system.cpu.fpInstQueueWakeupAccesses          4053920                       # Number of floating instruction queue wakeup accesses (Count)
system.cpu.vecInstQueueReads                        0                       # Number of vector instruction queue reads (Count)
system.cpu.vecInstQueueWrites                       0                       # Number of vector instruction queue writes (Count)
system.cpu.vecInstQueueWakeupAccesses               0                       # Number of vector instruction queue wakeup accesses (Count)
system.cpu.intAluAccesses                    64002971                       # Number of integer alu accesses (Count)
system.cpu.fpAluAccesses                      4986199                       # Number of floating point alu accesses (Count)
system.cpu.vecAluAccesses                           0                       # Number of vector alu accesses (Count)
system.cpu.numInsts                          63462296                       # Number of executed instructions (Count)
system.cpu.numLoadInsts                      16320810                       # Number of load instructions executed (Count)
system.cpu.numSquashedInsts                    609093                       # Number of squashed instructions skipped in execute (Count)
system.cpu.numSwp                                   0                       # Number of swp insts executed (Count)
system.cpu.numNop                                   0                       # Number of nop insts executed (Count)
system.cpu.numRefs                           25774379                       # Number of memory reference insts executed (Count)
system.cpu.numBranches                       15290343                       # Number of branches executed (Count)
system.cpu.numStoreInsts                      9453569                       # Number of stores executed (Count)
system.cpu.numRate                           0.278892                       # Inst execution rate ((Count/Cycle))
system.cpu.timesIdled                             331                       # Number of times that the entire CPU went into an idle state and unscheduled itself (Count)
system.cpu.idleCycles                           28592                       # Total number of cycles that the CPU has spent unscheduled due to idling (Cycle)
system.cpu.committedInsts                    50000007                       # Number of Instructions Simulated (Count)
system.cpu.committedOps                      50000007                       # Number of Ops (including micro ops) Simulated (Count)
system.cpu.cpi                               4.551028                       # CPI: Cycles Per Instruction ((Cycle/Count))
system.cpu.totalCpi                          4.551028                       # CPI: Total CPI of All Threads ((Cycle/Count))
system.cpu.ipc                               0.219731                       # IPC: Instructions Per Cycle ((Count/Cycle))
system.cpu.totalIpc                          0.219731                       # IPC: Total IPC of All Threads ((Count/Cycle))
system.cpu.intRegfileReads                   74738758                       # Number of integer regfile reads (Count)
system.cpu.intRegfileWrites                  37985940                       # Number of integer regfile writes (Count)
system.cpu.fpRegfileReads                     4256339                       # Number of floating regfile reads (Count)
system.cpu.fpRegfileWrites                    2230940                       # Number of floating regfile writes (Count)
system.cpu.miscRegfileReads                1710182245                       # number of misc regfile reads (Count)
system.cpu.miscRegfileWrites                  3057441                       # number of misc regfile writes (Count)
system.cpu.lastCommitTick                113775719500                       # The last tick to commit an instruction (Count)
system.cpu.MemDepUnit__0.insertedLoads       18449539                       # Number of loads inserted to the mem dependence unit. (Count)
system.cpu.MemDepUnit__0.insertedStores      10145442                       # Number of stores inserted to the mem dependence unit. (Count)
system.cpu.MemDepUnit__0.conflictingLoads       820650                       # Number of conflicting loads. (Count)
system.cpu.MemDepUnit__0.conflictingStores       726878                       # Number of conflicting stores. (Count)
system.cpu.MemDepUnit__1.insertedLoads              0                       # Number of loads inserted to the mem dependence unit. (Count)
system.cpu.MemDepUnit__1.insertedStores             0                       # Number of stores inserted to the mem dependence unit. (Count)
system.cpu.MemDepUnit__1.conflictingLoads            0                       # Number of conflicting loads. (Count)
system.cpu.MemDepUnit__1.conflictingStores            0                       # Number of conflicting stores. (Count)
system.cpu.MemDepUnit__2.insertedLoads              0                       # Number of loads inserted to the mem dependence unit. (Count)
system.cpu.MemDepUnit__2.insertedStores             0                       # Number of stores inserted to the mem dependence unit. (Count)
system.cpu.MemDepUnit__2.conflictingLoads            0                       # Number of conflicting loads. (Count)
system.cpu.MemDepUnit__2.conflictingStores            0                       # Number of conflicting stores. (Count)
system.cpu.MemDepUnit__3.insertedLoads              0                       # Number of loads inserted to the mem dependence unit. (Count)
system.cpu.MemDepUnit__3.insertedStores             0                       # Number of stores inserted to the mem dependence unit. (Count)
system.cpu.MemDepUnit__3.conflictingLoads            0                       # Number of conflicting loads. (Count)
system.cpu.MemDepUnit__3.conflictingStores            0                       # Number of conflicting stores. (Count)
system.cpu.branchPred.lookups                       0                       # Number of BP lookups (Count)
system.cpu.branchPred.condPredicted                 0                       # Number of conditional branches predicted (Count)
system.cpu.branchPred.condIncorrect            337182                       # Number of conditional branches incorrect (Count)
system.cpu.branchPred.BTBLookups                    0                       # Number of BTB lookups (Count)
system.cpu.branchPred.BTBHits                       0                       # Number of BTB hits (Count)
system.cpu.branchPred.BTBHitRatio                 nan                       # BTB Hit Ratio (Ratio)
system.cpu.branchPred.RASUsed                       0                       # Number of times the RAS was used to get a target. (Count)
system.cpu.branchPred.RASIncorrect              26896                       # Number of incorrect RAS predictions. (Count)
system.cpu.branchPred.indirectLookups               0                       # Number of indirect predictor lookups. (Count)
system.cpu.branchPred.indirectHits                  0                       # Number of indirect target hits. (Count)
system.cpu.branchPred.indirectMisses                0                       # Number of indirect misses. (Count)
system.cpu.branchPred.indirectMispredicted        34805                       # Number of mispredicted indirect branches. (Count)
system.cpu.branchPred.stream_tage.coldMisses            0                       # ittage the provider component lookup hit (Count)
system.cpu.branchPred.stream_tage.capacityMisses            0                       # ittage the alternate prediction lookup hit (Count)
system.cpu.branchPred.stream_tage.compulsoryMisses            0                       # ittage the provider component pred hit (Count)
system.cpu.branchPred.stream_tage.providerTableDist::samples     30939204                       # the distribution of provider component (Count)
system.cpu.branchPred.stream_tage.providerTableDist::mean     1.954664                       # the distribution of provider component (Count)
system.cpu.branchPred.stream_tage.providerTableDist::stdev     2.803403                       # the distribution of provider component (Count)
system.cpu.branchPred.stream_tage.providerTableDist::underflows            0      0.00%      0.00% # the distribution of provider component (Count)
system.cpu.branchPred.stream_tage.providerTableDist::0     16739326     54.10%     54.10% # the distribution of provider component (Count)
system.cpu.branchPred.stream_tage.providerTableDist::1      2611230      8.44%     62.54% # the distribution of provider component (Count)
system.cpu.branchPred.stream_tage.providerTableDist::2      1656983      5.36%     67.90% # the distribution of provider component (Count)
system.cpu.branchPred.stream_tage.providerTableDist::3      2273121      7.35%     75.25% # the distribution of provider component (Count)
system.cpu.branchPred.stream_tage.providerTableDist::4      1849346      5.98%     81.22% # the distribution of provider component (Count)
system.cpu.branchPred.stream_tage.providerTableDist::5      1489144      4.81%     86.04% # the distribution of provider component (Count)
system.cpu.branchPred.stream_tage.providerTableDist::6      1384544      4.48%     90.51% # the distribution of provider component (Count)
system.cpu.branchPred.stream_tage.providerTableDist::7      1251950      4.05%     94.56% # the distribution of provider component (Count)
system.cpu.branchPred.stream_tage.providerTableDist::8       750597      2.43%     96.98% # the distribution of provider component (Count)
system.cpu.branchPred.stream_tage.providerTableDist::9       351261      1.14%     98.12% # the distribution of provider component (Count)
system.cpu.branchPred.stream_tage.providerTableDist::10       217198      0.70%     98.82% # the distribution of provider component (Count)
system.cpu.branchPred.stream_tage.providerTableDist::11       110554      0.36%     99.18% # the distribution of provider component (Count)
system.cpu.branchPred.stream_tage.providerTableDist::12        95175      0.31%     99.49% # the distribution of provider component (Count)
system.cpu.branchPred.stream_tage.providerTableDist::13       101989      0.33%     99.82% # the distribution of provider component (Count)
system.cpu.branchPred.stream_tage.providerTableDist::14        56786      0.18%    100.00% # the distribution of provider component (Count)
system.cpu.branchPred.stream_tage.providerTableDist::15            0      0.00%    100.00% # the distribution of provider component (Count)
system.cpu.branchPred.stream_tage.providerTableDist::16            0      0.00%    100.00% # the distribution of provider component (Count)
system.cpu.branchPred.stream_tage.providerTableDist::17            0      0.00%    100.00% # the distribution of provider component (Count)
system.cpu.branchPred.stream_tage.providerTableDist::18            0      0.00%    100.00% # the distribution of provider component (Count)
system.cpu.branchPred.stream_tage.providerTableDist::19            0      0.00%    100.00% # the distribution of provider component (Count)
system.cpu.branchPred.stream_tage.providerTableDist::20            0      0.00%    100.00% # the distribution of provider component (Count)
system.cpu.branchPred.stream_tage.providerTableDist::21            0      0.00%    100.00% # the distribution of provider component (Count)
system.cpu.branchPred.stream_tage.providerTableDist::overflows            0      0.00%    100.00% # the distribution of provider component (Count)
system.cpu.branchPred.stream_tage.providerTableDist::min_value            0                       # the distribution of provider component (Count)
system.cpu.branchPred.stream_tage.providerTableDist::max_value           14                       # the distribution of provider component (Count)
system.cpu.branchPred.stream_tage.providerTableDist::total     30939204                       # the distribution of provider component (Count)
system.cpu.commit.commitSquashedInsts        20641831                       # The number of squashed insts skipped by commit (Count)
system.cpu.commit.commitNonSpecStalls            4261                       # The number of times commit has been forced to stall to communicate backwards (Count)
system.cpu.commit.branchMispredicts            371986                       # The number of times a branch was mispredicted (Count)
system.cpu.commit.numCommittedDist::samples    224477628                       # Number of insts commited each cycle (Count)
system.cpu.commit.numCommittedDist::mean     0.222739                       # Number of insts commited each cycle (Count)
system.cpu.commit.numCommittedDist::stdev     1.214267                       # Number of insts commited each cycle (Count)
system.cpu.commit.numCommittedDist::underflows            0      0.00%      0.00% # Number of insts commited each cycle (Count)
system.cpu.commit.numCommittedDist::0       214648424     95.62%     95.62% # Number of insts commited each cycle (Count)
system.cpu.commit.numCommittedDist::1         2316403      1.03%     96.65% # Number of insts commited each cycle (Count)
system.cpu.commit.numCommittedDist::2          741150      0.33%     96.98% # Number of insts commited each cycle (Count)
system.cpu.commit.numCommittedDist::3          627988      0.28%     97.26% # Number of insts commited each cycle (Count)
system.cpu.commit.numCommittedDist::4          567153      0.25%     97.52% # Number of insts commited each cycle (Count)
system.cpu.commit.numCommittedDist::5          472940      0.21%     97.73% # Number of insts commited each cycle (Count)
system.cpu.commit.numCommittedDist::6          412786      0.18%     97.91% # Number of insts commited each cycle (Count)
system.cpu.commit.numCommittedDist::7          318960      0.14%     98.05% # Number of insts commited each cycle (Count)
system.cpu.commit.numCommittedDist::8         4371824      1.95%    100.00% # Number of insts commited each cycle (Count)
system.cpu.commit.numCommittedDist::overflows            0      0.00%    100.00% # Number of insts commited each cycle (Count)
system.cpu.commit.numCommittedDist::min_value            0                       # Number of insts commited each cycle (Count)
system.cpu.commit.numCommittedDist::max_value            8                       # Number of insts commited each cycle (Count)
system.cpu.commit.numCommittedDist::total    224477628                       # Number of insts commited each cycle (Count)
system.cpu.commit.instsCommitted             50000007                       # Number of instructions committed (Count)
system.cpu.commit.opsCommitted               50000007                       # Number of ops (including micro ops) committed (Count)
system.cpu.commit.memRefs                    20924540                       # Number of memory references committed (Count)
system.cpu.commit.loads                      13252625                       # Number of loads committed (Count)
system.cpu.commit.amos                           4219                       # Number of atomic instructions committed (Count)
system.cpu.commit.membars                           0                       # Number of memory barriers committed (Count)
system.cpu.commit.branches                   12105971                       # Number of branches committed (Count)
system.cpu.commit.vectorInstructions                0                       # Number of committed Vector instructions. (Count)
system.cpu.commit.floating                    3337225                       # Number of committed floating point instructions. (Count)
system.cpu.commit.integer                    48677055                       # Number of committed integer instructions. (Count)
system.cpu.commit.functionCalls               1287281                       # Number of function calls committed. (Count)
system.cpu.commit.committedInstType_0::No_OpClass           41      0.00%      0.00% # Class of committed instruction (Count)
system.cpu.commit.committedInstType_0::IntAlu     27351540     54.70%     54.70% # Class of committed instruction (Count)
system.cpu.commit.committedInstType_0::IntMult           36      0.00%     54.70% # Class of committed instruction (Count)
system.cpu.commit.committedInstType_0::IntDiv        23745      0.05%     54.75% # Class of committed instruction (Count)
system.cpu.commit.committedInstType_0::FloatAdd        45238      0.09%     54.84% # Class of committed instruction (Count)
system.cpu.commit.committedInstType_0::FloatCmp      1269812      2.54%     57.38% # Class of committed instruction (Count)
system.cpu.commit.committedInstType_0::FloatCvt        82735      0.17%     57.55% # Class of committed instruction (Count)
system.cpu.commit.committedInstType_0::FloatMult           33      0.00%     57.55% # Class of committed instruction (Count)
system.cpu.commit.committedInstType_0::FloatMultAcc        12996      0.03%     57.57% # Class of committed instruction (Count)
system.cpu.commit.committedInstType_0::FloatDiv            9      0.00%     57.57% # Class of committed instruction (Count)
system.cpu.commit.committedInstType_0::FloatMisc       289279      0.58%     58.15% # Class of committed instruction (Count)
system.cpu.commit.committedInstType_0::FloatSqrt            3      0.00%     58.15% # Class of committed instruction (Count)
system.cpu.commit.committedInstType_0::SimdAdd            0      0.00%     58.15% # Class of committed instruction (Count)
system.cpu.commit.committedInstType_0::SimdAddAcc            0      0.00%     58.15% # Class of committed instruction (Count)
system.cpu.commit.committedInstType_0::SimdAlu            0      0.00%     58.15% # Class of committed instruction (Count)
system.cpu.commit.committedInstType_0::SimdCmp            0      0.00%     58.15% # Class of committed instruction (Count)
system.cpu.commit.committedInstType_0::SimdCvt            0      0.00%     58.15% # Class of committed instruction (Count)
system.cpu.commit.committedInstType_0::SimdMisc            0      0.00%     58.15% # Class of committed instruction (Count)
system.cpu.commit.committedInstType_0::SimdMult            0      0.00%     58.15% # Class of committed instruction (Count)
system.cpu.commit.committedInstType_0::SimdMultAcc            0      0.00%     58.15% # Class of committed instruction (Count)
system.cpu.commit.committedInstType_0::SimdShift            0      0.00%     58.15% # Class of committed instruction (Count)
system.cpu.commit.committedInstType_0::SimdShiftAcc            0      0.00%     58.15% # Class of committed instruction (Count)
system.cpu.commit.committedInstType_0::SimdDiv            0      0.00%     58.15% # Class of committed instruction (Count)
system.cpu.commit.committedInstType_0::SimdSqrt            0      0.00%     58.15% # Class of committed instruction (Count)
system.cpu.commit.committedInstType_0::SimdFloatAdd            0      0.00%     58.15% # Class of committed instruction (Count)
system.cpu.commit.committedInstType_0::SimdFloatAlu            0      0.00%     58.15% # Class of committed instruction (Count)
system.cpu.commit.committedInstType_0::SimdFloatCmp            0      0.00%     58.15% # Class of committed instruction (Count)
system.cpu.commit.committedInstType_0::SimdFloatCvt            0      0.00%     58.15% # Class of committed instruction (Count)
system.cpu.commit.committedInstType_0::SimdFloatDiv            0      0.00%     58.15% # Class of committed instruction (Count)
system.cpu.commit.committedInstType_0::SimdFloatMisc            0      0.00%     58.15% # Class of committed instruction (Count)
system.cpu.commit.committedInstType_0::SimdFloatMult            0      0.00%     58.15% # Class of committed instruction (Count)
system.cpu.commit.committedInstType_0::SimdFloatMultAcc            0      0.00%     58.15% # Class of committed instruction (Count)
system.cpu.commit.committedInstType_0::SimdFloatSqrt            0      0.00%     58.15% # Class of committed instruction (Count)
system.cpu.commit.committedInstType_0::SimdReduceAdd            0      0.00%     58.15% # Class of committed instruction (Count)
system.cpu.commit.committedInstType_0::SimdReduceAlu            0      0.00%     58.15% # Class of committed instruction (Count)
system.cpu.commit.committedInstType_0::SimdReduceCmp            0      0.00%     58.15% # Class of committed instruction (Count)
system.cpu.commit.committedInstType_0::SimdFloatReduceAdd            0      0.00%     58.15% # Class of committed instruction (Count)
system.cpu.commit.committedInstType_0::SimdFloatReduceCmp            0      0.00%     58.15% # Class of committed instruction (Count)
system.cpu.commit.committedInstType_0::SimdAes            0      0.00%     58.15% # Class of committed instruction (Count)
system.cpu.commit.committedInstType_0::SimdAesMix            0      0.00%     58.15% # Class of committed instruction (Count)
system.cpu.commit.committedInstType_0::SimdSha1Hash            0      0.00%     58.15% # Class of committed instruction (Count)
system.cpu.commit.committedInstType_0::SimdSha1Hash2            0      0.00%     58.15% # Class of committed instruction (Count)
system.cpu.commit.committedInstType_0::SimdSha256Hash            0      0.00%     58.15% # Class of committed instruction (Count)
system.cpu.commit.committedInstType_0::SimdSha256Hash2            0      0.00%     58.15% # Class of committed instruction (Count)
system.cpu.commit.committedInstType_0::SimdShaSigma2            0      0.00%     58.15% # Class of committed instruction (Count)
system.cpu.commit.committedInstType_0::SimdShaSigma3            0      0.00%     58.15% # Class of committed instruction (Count)
system.cpu.commit.committedInstType_0::SimdPredAlu            0      0.00%     58.15% # Class of committed instruction (Count)
system.cpu.commit.committedInstType_0::MemRead     11899533     23.80%     81.95% # Class of committed instruction (Count)
system.cpu.commit.committedInstType_0::MemWrite      7387887     14.78%     96.73% # Class of committed instruction (Count)
system.cpu.commit.committedInstType_0::FloatMemRead      1357311      2.71%     99.44% # Class of committed instruction (Count)
system.cpu.commit.committedInstType_0::FloatMemWrite       279809      0.56%    100.00% # Class of committed instruction (Count)
system.cpu.commit.committedInstType_0::IprAccess            0      0.00%    100.00% # Class of committed instruction (Count)
system.cpu.commit.committedInstType_0::InstPrefetch            0      0.00%    100.00% # Class of committed instruction (Count)
system.cpu.commit.committedInstType_0::total     50000007                       # Class of committed instruction (Count)
system.cpu.commit.commitEligibleSamples       4371824                       # number cycles where commit BW limit reached (Cycle)
system.cpu.dcache.demandHits::cpu.data       19015060                       # number of demand (read+write) hits (Count)
system.cpu.dcache.demandHits::total          19015060                       # number of demand (read+write) hits (Count)
system.cpu.dcache.overallHits::cpu.data      19015060                       # number of overall hits (Count)
system.cpu.dcache.overallHits::total         19015060                       # number of overall hits (Count)
system.cpu.dcache.demandMisses::cpu.data      2575090                       # number of demand (read+write) misses (Count)
system.cpu.dcache.demandMisses::total         2575090                       # number of demand (read+write) misses (Count)
system.cpu.dcache.overallMisses::cpu.data      2575090                       # number of overall misses (Count)
system.cpu.dcache.overallMisses::total        2575090                       # number of overall misses (Count)
system.cpu.dcache.demandMissLatency::cpu.data 151092101000                       # number of demand (read+write) miss ticks (Tick)
system.cpu.dcache.demandMissLatency::total 151092101000                       # number of demand (read+write) miss ticks (Tick)
system.cpu.dcache.overallMissLatency::cpu.data 151092101000                       # number of overall miss ticks (Tick)
system.cpu.dcache.overallMissLatency::total 151092101000                       # number of overall miss ticks (Tick)
system.cpu.dcache.demandAccesses::cpu.data     21590150                       # number of demand (read+write) accesses (Count)
system.cpu.dcache.demandAccesses::total      21590150                       # number of demand (read+write) accesses (Count)
system.cpu.dcache.overallAccesses::cpu.data     21590150                       # number of overall (read+write) accesses (Count)
system.cpu.dcache.overallAccesses::total     21590150                       # number of overall (read+write) accesses (Count)
system.cpu.dcache.demandMissRate::cpu.data     0.119272                       # miss rate for demand accesses (Ratio)
system.cpu.dcache.demandMissRate::total      0.119272                       # miss rate for demand accesses (Ratio)
system.cpu.dcache.overallMissRate::cpu.data     0.119272                       # miss rate for overall accesses (Ratio)
system.cpu.dcache.overallMissRate::total     0.119272                       # miss rate for overall accesses (Ratio)
system.cpu.dcache.demandAvgMissLatency::cpu.data 58674.493319                       # average overall miss latency in ticks ((Tick/Count))
system.cpu.dcache.demandAvgMissLatency::total 58674.493319                       # average overall miss latency in ticks ((Tick/Count))
system.cpu.dcache.overallAvgMissLatency::cpu.data 58674.493319                       # average overall miss latency ((Tick/Count))
system.cpu.dcache.overallAvgMissLatency::total 58674.493319                       # average overall miss latency ((Tick/Count))
system.cpu.dcache.blockedCycles::no_mshrs            0                       # number of cycles access was blocked (Cycle)
system.cpu.dcache.blockedCycles::no_targets          818                       # number of cycles access was blocked (Cycle)
system.cpu.dcache.blockedCauses::no_mshrs            0                       # number of times access was blocked (Count)
system.cpu.dcache.blockedCauses::no_targets            5                       # number of times access was blocked (Count)
system.cpu.dcache.avgBlocked::no_mshrs            nan                       # average number of cycles each access was blocked ((Cycle/Count))
system.cpu.dcache.avgBlocked::no_targets   163.600000                       # average number of cycles each access was blocked ((Cycle/Count))
system.cpu.dcache.writebacks::writebacks       573580                       # number of writebacks (Count)
system.cpu.dcache.writebacks::total            573580                       # number of writebacks (Count)
system.cpu.dcache.demandMshrHits::cpu.data      1374329                       # number of demand (read+write) MSHR hits (Count)
system.cpu.dcache.demandMshrHits::total       1374329                       # number of demand (read+write) MSHR hits (Count)
system.cpu.dcache.overallMshrHits::cpu.data      1374329                       # number of overall MSHR hits (Count)
system.cpu.dcache.overallMshrHits::total      1374329                       # number of overall MSHR hits (Count)
system.cpu.dcache.demandMshrMisses::cpu.data      1200761                       # number of demand (read+write) MSHR misses (Count)
system.cpu.dcache.demandMshrMisses::total      1200761                       # number of demand (read+write) MSHR misses (Count)
system.cpu.dcache.overallMshrMisses::cpu.data      1200761                       # number of overall MSHR misses (Count)
system.cpu.dcache.overallMshrMisses::total      1200761                       # number of overall MSHR misses (Count)
system.cpu.dcache.overallMshrUncacheable::cpu.data            2                       # number of overall MSHR uncacheable misses (Count)
system.cpu.dcache.overallMshrUncacheable::total            2                       # number of overall MSHR uncacheable misses (Count)
system.cpu.dcache.demandMshrMissLatency::cpu.data  71471703500                       # number of demand (read+write) MSHR miss ticks (Tick)
system.cpu.dcache.demandMshrMissLatency::total  71471703500                       # number of demand (read+write) MSHR miss ticks (Tick)
system.cpu.dcache.overallMshrMissLatency::cpu.data  71471703500                       # number of overall MSHR miss ticks (Tick)
system.cpu.dcache.overallMshrMissLatency::total  71471703500                       # number of overall MSHR miss ticks (Tick)
system.cpu.dcache.demandMshrMissRate::cpu.data     0.055616                       # mshr miss ratio for demand accesses (Ratio)
system.cpu.dcache.demandMshrMissRate::total     0.055616                       # mshr miss ratio for demand accesses (Ratio)
system.cpu.dcache.overallMshrMissRate::cpu.data     0.055616                       # mshr miss ratio for overall accesses (Ratio)
system.cpu.dcache.overallMshrMissRate::total     0.055616                       # mshr miss ratio for overall accesses (Ratio)
system.cpu.dcache.demandAvgMshrMissLatency::cpu.data 59522.006045                       # average overall mshr miss latency ((Tick/Count))
system.cpu.dcache.demandAvgMshrMissLatency::total 59522.006045                       # average overall mshr miss latency ((Tick/Count))
system.cpu.dcache.overallAvgMshrMissLatency::cpu.data 59522.006045                       # average overall mshr miss latency ((Tick/Count))
system.cpu.dcache.overallAvgMshrMissLatency::total 59522.006045                       # average overall mshr miss latency ((Tick/Count))
system.cpu.dcache.replacements                1198713                       # number of replacements (Count)
system.cpu.dcache.LoadLockedReq.hits::cpu.data            1                       # number of LoadLockedReq hits (Count)
system.cpu.dcache.LoadLockedReq.hits::total            1                       # number of LoadLockedReq hits (Count)
system.cpu.dcache.LoadLockedReq.accesses::cpu.data            1                       # number of LoadLockedReq accesses(hits+misses) (Count)
system.cpu.dcache.LoadLockedReq.accesses::total            1                       # number of LoadLockedReq accesses(hits+misses) (Count)
system.cpu.dcache.ReadReq.hits::cpu.data     11820843                       # number of ReadReq hits (Count)
system.cpu.dcache.ReadReq.hits::total        11820843                       # number of ReadReq hits (Count)
system.cpu.dcache.ReadReq.misses::cpu.data      2101615                       # number of ReadReq misses (Count)
system.cpu.dcache.ReadReq.misses::total       2101615                       # number of ReadReq misses (Count)
system.cpu.dcache.ReadReq.missLatency::cpu.data 122564170000                       # number of ReadReq miss ticks (Tick)
system.cpu.dcache.ReadReq.missLatency::total 122564170000                       # number of ReadReq miss ticks (Tick)
system.cpu.dcache.ReadReq.accesses::cpu.data     13922458                       # number of ReadReq accesses(hits+misses) (Count)
system.cpu.dcache.ReadReq.accesses::total     13922458                       # number of ReadReq accesses(hits+misses) (Count)
system.cpu.dcache.ReadReq.missRate::cpu.data     0.150951                       # miss rate for ReadReq accesses (Ratio)
system.cpu.dcache.ReadReq.missRate::total     0.150951                       # miss rate for ReadReq accesses (Ratio)
system.cpu.dcache.ReadReq.avgMissLatency::cpu.data 58319.040357                       # average ReadReq miss latency ((Tick/Count))
system.cpu.dcache.ReadReq.avgMissLatency::total 58319.040357                       # average ReadReq miss latency ((Tick/Count))
system.cpu.dcache.ReadReq.mshrHits::cpu.data      1033934                       # number of ReadReq MSHR hits (Count)
system.cpu.dcache.ReadReq.mshrHits::total      1033934                       # number of ReadReq MSHR hits (Count)
system.cpu.dcache.ReadReq.mshrMisses::cpu.data      1067681                       # number of ReadReq MSHR misses (Count)
system.cpu.dcache.ReadReq.mshrMisses::total      1067681                       # number of ReadReq MSHR misses (Count)
system.cpu.dcache.ReadReq.mshrMissLatency::cpu.data  63504605500                       # number of ReadReq MSHR miss ticks (Tick)
system.cpu.dcache.ReadReq.mshrMissLatency::total  63504605500                       # number of ReadReq MSHR miss ticks (Tick)
system.cpu.dcache.ReadReq.mshrMissRate::cpu.data     0.076688                       # mshr miss rate for ReadReq accesses (Ratio)
system.cpu.dcache.ReadReq.mshrMissRate::total     0.076688                       # mshr miss rate for ReadReq accesses (Ratio)
system.cpu.dcache.ReadReq.avgMshrMissLatency::cpu.data 59479.006838                       # average ReadReq mshr miss latency ((Tick/Count))
system.cpu.dcache.ReadReq.avgMshrMissLatency::total 59479.006838                       # average ReadReq mshr miss latency ((Tick/Count))
system.cpu.dcache.SwapReq.hits::cpu.data         4219                       # number of SwapReq hits (Count)
system.cpu.dcache.SwapReq.hits::total            4219                       # number of SwapReq hits (Count)
system.cpu.dcache.SwapReq.accesses::cpu.data         4219                       # number of SwapReq accesses(hits+misses) (Count)
system.cpu.dcache.SwapReq.accesses::total         4219                       # number of SwapReq accesses(hits+misses) (Count)
system.cpu.dcache.WriteReq.hits::cpu.data      7194217                       # number of WriteReq hits (Count)
system.cpu.dcache.WriteReq.hits::total        7194217                       # number of WriteReq hits (Count)
system.cpu.dcache.WriteReq.misses::cpu.data       473475                       # number of WriteReq misses (Count)
system.cpu.dcache.WriteReq.misses::total       473475                       # number of WriteReq misses (Count)
system.cpu.dcache.WriteReq.missLatency::cpu.data  28527931000                       # number of WriteReq miss ticks (Tick)
system.cpu.dcache.WriteReq.missLatency::total  28527931000                       # number of WriteReq miss ticks (Tick)
system.cpu.dcache.WriteReq.accesses::cpu.data      7667692                       # number of WriteReq accesses(hits+misses) (Count)
system.cpu.dcache.WriteReq.accesses::total      7667692                       # number of WriteReq accesses(hits+misses) (Count)
system.cpu.dcache.WriteReq.missRate::cpu.data     0.061749                       # miss rate for WriteReq accesses (Ratio)
system.cpu.dcache.WriteReq.missRate::total     0.061749                       # miss rate for WriteReq accesses (Ratio)
system.cpu.dcache.WriteReq.avgMissLatency::cpu.data 60252.243519                       # average WriteReq miss latency ((Tick/Count))
system.cpu.dcache.WriteReq.avgMissLatency::total 60252.243519                       # average WriteReq miss latency ((Tick/Count))
system.cpu.dcache.WriteReq.mshrHits::cpu.data       340395                       # number of WriteReq MSHR hits (Count)
system.cpu.dcache.WriteReq.mshrHits::total       340395                       # number of WriteReq MSHR hits (Count)
system.cpu.dcache.WriteReq.mshrMisses::cpu.data       133080                       # number of WriteReq MSHR misses (Count)
system.cpu.dcache.WriteReq.mshrMisses::total       133080                       # number of WriteReq MSHR misses (Count)
system.cpu.dcache.WriteReq.mshrUncacheable::cpu.data            2                       # number of WriteReq MSHR uncacheable (Count)
system.cpu.dcache.WriteReq.mshrUncacheable::total            2                       # number of WriteReq MSHR uncacheable (Count)
system.cpu.dcache.WriteReq.mshrMissLatency::cpu.data   7967098000                       # number of WriteReq MSHR miss ticks (Tick)
system.cpu.dcache.WriteReq.mshrMissLatency::total   7967098000                       # number of WriteReq MSHR miss ticks (Tick)
system.cpu.dcache.WriteReq.mshrMissRate::cpu.data     0.017356                       # mshr miss rate for WriteReq accesses (Ratio)
system.cpu.dcache.WriteReq.mshrMissRate::total     0.017356                       # mshr miss rate for WriteReq accesses (Ratio)
system.cpu.dcache.WriteReq.avgMshrMissLatency::cpu.data 59866.982266                       # average WriteReq mshr miss latency ((Tick/Count))
system.cpu.dcache.WriteReq.avgMshrMissLatency::total 59866.982266                       # average WriteReq mshr miss latency ((Tick/Count))
system.cpu.dcache.power_state.pwrStateResidencyTicks::UNDEFINED 113775719500                       # Cumulative time (in ticks) in various power states (Tick)
system.cpu.dcache.tags.tagsInUse          2045.913011                       # Average ticks per tags in use ((Tick/Count))
system.cpu.dcache.tags.totalRefs             18816287                       # Total number of references to valid blocks. (Count)
system.cpu.dcache.tags.sampledRefs            1198713                       # Sample count of references to valid blocks. (Count)
system.cpu.dcache.tags.avgRefs              15.697074                       # Average number of references to valid blocks. ((Count/Count))
system.cpu.dcache.tags.warmupTick              153500                       # The tick when the warmup percentage was hit. (Tick)
system.cpu.dcache.tags.occupancies::cpu.data  2045.913011                       # Average occupied blocks per tick, per requestor ((Count/Tick))
system.cpu.dcache.tags.avgOccs::cpu.data     0.998981                       # Average percentage of cache occupancy ((Ratio/Tick))
system.cpu.dcache.tags.avgOccs::total        0.998981                       # Average percentage of cache occupancy ((Ratio/Tick))
system.cpu.dcache.tags.occupanciesTaskId::1024         2048                       # Occupied blocks per task id (Count)
system.cpu.dcache.tags.ageTaskId_1024::0          115                       # Occupied blocks per task id, per block age (Count)
system.cpu.dcache.tags.ageTaskId_1024::1          834                       # Occupied blocks per task id, per block age (Count)
system.cpu.dcache.tags.ageTaskId_1024::2         1034                       # Occupied blocks per task id, per block age (Count)
system.cpu.dcache.tags.ageTaskId_1024::3           46                       # Occupied blocks per task id, per block age (Count)
system.cpu.dcache.tags.ageTaskId_1024::4           19                       # Occupied blocks per task id, per block age (Count)
system.cpu.dcache.tags.ratioOccsTaskId::1024            1                       # Ratio of occupied blocks and all blocks, per task id (Ratio)
system.cpu.dcache.tags.tagAccesses          173955721                       # Number of tag accesses (Count)
system.cpu.dcache.tags.dataAccesses         173955721                       # Number of data accesses (Count)
system.cpu.dcache.tags.power_state.pwrStateResidencyTicks::UNDEFINED 113775719500                       # Cumulative time (in ticks) in various power states (Tick)
system.cpu.decode.idleCycles                  1936832                       # Number of cycles decode is idle (Cycle)
system.cpu.decode.blockedCycles             212665200                       # Number of cycles decode is blocked (Cycle)
system.cpu.decode.runCycles                  10431704                       # Number of cycles decode is running (Cycle)
system.cpu.decode.unblockCycles               2109301                       # Number of cycles decode is unblocking (Cycle)
system.cpu.decode.squashCycles                 379811                       # Number of cycles decode is squashing (Cycle)
system.cpu.decode.branchResolved              7269740                       # Number of times decode resolved a branch (Count)
system.cpu.decode.branchMispred                  6175                       # Number of times decode detected a branch misprediction (Count)
system.cpu.decode.decodedInsts               74942503                       # Number of instructions handled by decode (Count)
system.cpu.decode.squashedInsts                 32376                       # Number of squashed instructions handled by decode (Count)
system.cpu.dtb_walker_cache.demandHits::cpu.mmu.dtb.walker      5518938                       # number of demand (read+write) hits (Count)
system.cpu.dtb_walker_cache.demandHits::total      5518938                       # number of demand (read+write) hits (Count)
system.cpu.dtb_walker_cache.overallHits::cpu.mmu.dtb.walker      5518938                       # number of overall hits (Count)
system.cpu.dtb_walker_cache.overallHits::total      5518938                       # number of overall hits (Count)
system.cpu.dtb_walker_cache.demandMisses::cpu.mmu.dtb.walker      1336615                       # number of demand (read+write) misses (Count)
system.cpu.dtb_walker_cache.demandMisses::total      1336615                       # number of demand (read+write) misses (Count)
system.cpu.dtb_walker_cache.overallMisses::cpu.mmu.dtb.walker      1336615                       # number of overall misses (Count)
system.cpu.dtb_walker_cache.overallMisses::total      1336615                       # number of overall misses (Count)
system.cpu.dtb_walker_cache.demandMissLatency::cpu.mmu.dtb.walker  87724566000                       # number of demand (read+write) miss ticks (Tick)
system.cpu.dtb_walker_cache.demandMissLatency::total  87724566000                       # number of demand (read+write) miss ticks (Tick)
system.cpu.dtb_walker_cache.overallMissLatency::cpu.mmu.dtb.walker  87724566000                       # number of overall miss ticks (Tick)
system.cpu.dtb_walker_cache.overallMissLatency::total  87724566000                       # number of overall miss ticks (Tick)
system.cpu.dtb_walker_cache.demandAccesses::cpu.mmu.dtb.walker      6855553                       # number of demand (read+write) accesses (Count)
system.cpu.dtb_walker_cache.demandAccesses::total      6855553                       # number of demand (read+write) accesses (Count)
system.cpu.dtb_walker_cache.overallAccesses::cpu.mmu.dtb.walker      6855553                       # number of overall (read+write) accesses (Count)
system.cpu.dtb_walker_cache.overallAccesses::total      6855553                       # number of overall (read+write) accesses (Count)
system.cpu.dtb_walker_cache.demandMissRate::cpu.mmu.dtb.walker     0.194968                       # miss rate for demand accesses (Ratio)
system.cpu.dtb_walker_cache.demandMissRate::total     0.194968                       # miss rate for demand accesses (Ratio)
system.cpu.dtb_walker_cache.overallMissRate::cpu.mmu.dtb.walker     0.194968                       # miss rate for overall accesses (Ratio)
system.cpu.dtb_walker_cache.overallMissRate::total     0.194968                       # miss rate for overall accesses (Ratio)
system.cpu.dtb_walker_cache.demandAvgMissLatency::cpu.mmu.dtb.walker 65631.888016                       # average overall miss latency in ticks ((Tick/Count))
system.cpu.dtb_walker_cache.demandAvgMissLatency::total 65631.888016                       # average overall miss latency in ticks ((Tick/Count))
system.cpu.dtb_walker_cache.overallAvgMissLatency::cpu.mmu.dtb.walker 65631.888016                       # average overall miss latency ((Tick/Count))
system.cpu.dtb_walker_cache.overallAvgMissLatency::total 65631.888016                       # average overall miss latency ((Tick/Count))
system.cpu.dtb_walker_cache.blockedCycles::no_mshrs            0                       # number of cycles access was blocked (Cycle)
system.cpu.dtb_walker_cache.blockedCycles::no_targets            0                       # number of cycles access was blocked (Cycle)
system.cpu.dtb_walker_cache.blockedCauses::no_mshrs            0                       # number of times access was blocked (Count)
system.cpu.dtb_walker_cache.blockedCauses::no_targets            0                       # number of times access was blocked (Count)
system.cpu.dtb_walker_cache.avgBlocked::no_mshrs          nan                       # average number of cycles each access was blocked ((Cycle/Count))
system.cpu.dtb_walker_cache.avgBlocked::no_targets          nan                       # average number of cycles each access was blocked ((Cycle/Count))
system.cpu.dtb_walker_cache.demandMshrMisses::cpu.mmu.dtb.walker      1336615                       # number of demand (read+write) MSHR misses (Count)
system.cpu.dtb_walker_cache.demandMshrMisses::total      1336615                       # number of demand (read+write) MSHR misses (Count)
system.cpu.dtb_walker_cache.overallMshrMisses::cpu.mmu.dtb.walker      1336615                       # number of overall MSHR misses (Count)
system.cpu.dtb_walker_cache.overallMshrMisses::total      1336615                       # number of overall MSHR misses (Count)
system.cpu.dtb_walker_cache.demandMshrMissLatency::cpu.mmu.dtb.walker  86387952000                       # number of demand (read+write) MSHR miss ticks (Tick)
system.cpu.dtb_walker_cache.demandMshrMissLatency::total  86387952000                       # number of demand (read+write) MSHR miss ticks (Tick)
system.cpu.dtb_walker_cache.overallMshrMissLatency::cpu.mmu.dtb.walker  86387952000                       # number of overall MSHR miss ticks (Tick)
system.cpu.dtb_walker_cache.overallMshrMissLatency::total  86387952000                       # number of overall MSHR miss ticks (Tick)
system.cpu.dtb_walker_cache.demandMshrMissRate::cpu.mmu.dtb.walker     0.194968                       # mshr miss ratio for demand accesses (Ratio)
system.cpu.dtb_walker_cache.demandMshrMissRate::total     0.194968                       # mshr miss ratio for demand accesses (Ratio)
system.cpu.dtb_walker_cache.overallMshrMissRate::cpu.mmu.dtb.walker     0.194968                       # mshr miss ratio for overall accesses (Ratio)
system.cpu.dtb_walker_cache.overallMshrMissRate::total     0.194968                       # mshr miss ratio for overall accesses (Ratio)
system.cpu.dtb_walker_cache.demandAvgMshrMissLatency::cpu.mmu.dtb.walker 64631.888764                       # average overall mshr miss latency ((Tick/Count))
system.cpu.dtb_walker_cache.demandAvgMshrMissLatency::total 64631.888764                       # average overall mshr miss latency ((Tick/Count))
system.cpu.dtb_walker_cache.overallAvgMshrMissLatency::cpu.mmu.dtb.walker 64631.888764                       # average overall mshr miss latency ((Tick/Count))
system.cpu.dtb_walker_cache.overallAvgMshrMissLatency::total 64631.888764                       # average overall mshr miss latency ((Tick/Count))
system.cpu.dtb_walker_cache.replacements      1336598                       # number of replacements (Count)
system.cpu.dtb_walker_cache.ReadReq.hits::cpu.mmu.dtb.walker      5518938                       # number of ReadReq hits (Count)
system.cpu.dtb_walker_cache.ReadReq.hits::total      5518938                       # number of ReadReq hits (Count)
system.cpu.dtb_walker_cache.ReadReq.misses::cpu.mmu.dtb.walker      1336615                       # number of ReadReq misses (Count)
system.cpu.dtb_walker_cache.ReadReq.misses::total      1336615                       # number of ReadReq misses (Count)
system.cpu.dtb_walker_cache.ReadReq.missLatency::cpu.mmu.dtb.walker  87724566000                       # number of ReadReq miss ticks (Tick)
system.cpu.dtb_walker_cache.ReadReq.missLatency::total  87724566000                       # number of ReadReq miss ticks (Tick)
system.cpu.dtb_walker_cache.ReadReq.accesses::cpu.mmu.dtb.walker      6855553                       # number of ReadReq accesses(hits+misses) (Count)
system.cpu.dtb_walker_cache.ReadReq.accesses::total      6855553                       # number of ReadReq accesses(hits+misses) (Count)
system.cpu.dtb_walker_cache.ReadReq.missRate::cpu.mmu.dtb.walker     0.194968                       # miss rate for ReadReq accesses (Ratio)
system.cpu.dtb_walker_cache.ReadReq.missRate::total     0.194968                       # miss rate for ReadReq accesses (Ratio)
system.cpu.dtb_walker_cache.ReadReq.avgMissLatency::cpu.mmu.dtb.walker 65631.888016                       # average ReadReq miss latency ((Tick/Count))
system.cpu.dtb_walker_cache.ReadReq.avgMissLatency::total 65631.888016                       # average ReadReq miss latency ((Tick/Count))
system.cpu.dtb_walker_cache.ReadReq.mshrMisses::cpu.mmu.dtb.walker      1336615                       # number of ReadReq MSHR misses (Count)
system.cpu.dtb_walker_cache.ReadReq.mshrMisses::total      1336615                       # number of ReadReq MSHR misses (Count)
system.cpu.dtb_walker_cache.ReadReq.mshrMissLatency::cpu.mmu.dtb.walker  86387952000                       # number of ReadReq MSHR miss ticks (Tick)
system.cpu.dtb_walker_cache.ReadReq.mshrMissLatency::total  86387952000                       # number of ReadReq MSHR miss ticks (Tick)
system.cpu.dtb_walker_cache.ReadReq.mshrMissRate::cpu.mmu.dtb.walker     0.194968                       # mshr miss rate for ReadReq accesses (Ratio)
system.cpu.dtb_walker_cache.ReadReq.mshrMissRate::total     0.194968                       # mshr miss rate for ReadReq accesses (Ratio)
system.cpu.dtb_walker_cache.ReadReq.avgMshrMissLatency::cpu.mmu.dtb.walker 64631.888764                       # average ReadReq mshr miss latency ((Tick/Count))
system.cpu.dtb_walker_cache.ReadReq.avgMshrMissLatency::total 64631.888764                       # average ReadReq mshr miss latency ((Tick/Count))
system.cpu.dtb_walker_cache.power_state.pwrStateResidencyTicks::UNDEFINED 113775719500                       # Cumulative time (in ticks) in various power states (Tick)
system.cpu.dtb_walker_cache.tags.tagsInUse    15.999614                       # Average ticks per tags in use ((Tick/Count))
system.cpu.dtb_walker_cache.tags.totalRefs      6855360                       # Total number of references to valid blocks. (Count)
system.cpu.dtb_walker_cache.tags.sampledRefs      1336598                       # Sample count of references to valid blocks. (Count)
system.cpu.dtb_walker_cache.tags.avgRefs     5.128962                       # Average number of references to valid blocks. ((Count/Count))
system.cpu.dtb_walker_cache.tags.warmupTick      1547500                       # The tick when the warmup percentage was hit. (Tick)
system.cpu.dtb_walker_cache.tags.occupancies::cpu.mmu.dtb.walker    15.999614                       # Average occupied blocks per tick, per requestor ((Count/Tick))
system.cpu.dtb_walker_cache.tags.avgOccs::cpu.mmu.dtb.walker     0.999976                       # Average percentage of cache occupancy ((Ratio/Tick))
system.cpu.dtb_walker_cache.tags.avgOccs::total     0.999976                       # Average percentage of cache occupancy ((Ratio/Tick))
system.cpu.dtb_walker_cache.tags.occupanciesTaskId::1024           16                       # Occupied blocks per task id (Count)
system.cpu.dtb_walker_cache.tags.ageTaskId_1024::0           16                       # Occupied blocks per task id, per block age (Count)
system.cpu.dtb_walker_cache.tags.ratioOccsTaskId::1024            1                       # Ratio of occupied blocks and all blocks, per task id (Ratio)
system.cpu.dtb_walker_cache.tags.tagAccesses     15047720                       # Number of tag accesses (Count)
system.cpu.dtb_walker_cache.tags.dataAccesses     15047720                       # Number of data accesses (Count)
system.cpu.dtb_walker_cache.tags.power_state.pwrStateResidencyTicks::UNDEFINED 113775719500                       # Cumulative time (in ticks) in various power states (Tick)
system.cpu.fetch.icacheStallCycles              27379                       # Number of cycles fetch is stalled on an Icache miss (Cycle)
system.cpu.fetch.insts                       83895586                       # Number of instructions fetch has processed (Count)
system.cpu.fetch.branches                    10847231                       # Number of branches that fetch encountered (Count)
system.cpu.fetch.predictedBranches           10847231                       # Number of branches that fetch has predicted taken (Count)
system.cpu.fetch.cycles                     227093548                       # Number of cycles fetch has run and was not squashing or blocked (Cycle)
system.cpu.fetch.squashCycles                  771778                       # Number of cycles fetch has spent squashing (Cycle)
system.cpu.fetch.tlbCycles                       8185                       # Number of cycles fetch has spent waiting for tlb (Cycle)
system.cpu.fetch.miscStallCycles                 1636                       # Number of cycles fetch has spent waiting on interrupts, or bad addresses, or out of MSHRs (Cycle)
system.cpu.fetch.pendingTrapStallCycles          3930                       # Number of stall cycles due to pending traps (Cycle)
system.cpu.fetch.icacheWaitRetryStallCycles         2281                       # Number of stall cycles due to full MSHR (Cycle)
system.cpu.fetch.cacheLines                  12082361                       # Number of cache lines fetched (Count)
system.cpu.fetch.icacheSquashes                   508                       # Number of outstanding Icache misses that were squashed (Count)
system.cpu.fetch.tlbSquashes                       25                       # Number of outstanding ITLB misses that were squashed (Count)
system.cpu.fetch.nisnDist::samples          227522848                       # Number of instructions fetched each cycle (Total) (Count)
system.cpu.fetch.nisnDist::mean              0.368736                       # Number of instructions fetched each cycle (Total) (Count)
system.cpu.fetch.nisnDist::stdev             1.426289                       # Number of instructions fetched each cycle (Total) (Count)
system.cpu.fetch.nisnDist::underflows               0      0.00%      0.00% # Number of instructions fetched each cycle (Total) (Count)
system.cpu.fetch.nisnDist::0                208401777     91.60%     91.60% # Number of instructions fetched each cycle (Total) (Count)
system.cpu.fetch.nisnDist::1                  3555123      1.56%     93.16% # Number of instructions fetched each cycle (Total) (Count)
system.cpu.fetch.nisnDist::2                  2738020      1.20%     94.36% # Number of instructions fetched each cycle (Total) (Count)
system.cpu.fetch.nisnDist::3                  1794319      0.79%     95.15% # Number of instructions fetched each cycle (Total) (Count)
system.cpu.fetch.nisnDist::4                  1829358      0.80%     95.95% # Number of instructions fetched each cycle (Total) (Count)
system.cpu.fetch.nisnDist::5                  2074177      0.91%     96.87% # Number of instructions fetched each cycle (Total) (Count)
system.cpu.fetch.nisnDist::6                  2193246      0.96%     97.83% # Number of instructions fetched each cycle (Total) (Count)
system.cpu.fetch.nisnDist::7                   860604      0.38%     98.21% # Number of instructions fetched each cycle (Total) (Count)
system.cpu.fetch.nisnDist::8                  4076224      1.79%    100.00% # Number of instructions fetched each cycle (Total) (Count)
system.cpu.fetch.nisnDist::overflows                0      0.00%    100.00% # Number of instructions fetched each cycle (Total) (Count)
system.cpu.fetch.nisnDist::min_value                0                       # Number of instructions fetched each cycle (Total) (Count)
system.cpu.fetch.nisnDist::max_value                8                       # Number of instructions fetched each cycle (Total) (Count)
system.cpu.fetch.nisnDist::total            227522848                       # Number of instructions fetched each cycle (Total) (Count)
system.cpu.fetch.branchRate                  0.047669                       # Number of branch fetches per cycle (Ratio)
system.cpu.fetch.rate                        0.368688                       # Number of inst fetches per cycle ((Count/Cycle))
system.cpu.icache.demandHits::cpu.inst       12081468                       # number of demand (read+write) hits (Count)
system.cpu.icache.demandHits::total          12081468                       # number of demand (read+write) hits (Count)
system.cpu.icache.overallHits::cpu.inst      12081468                       # number of overall hits (Count)
system.cpu.icache.overallHits::total         12081468                       # number of overall hits (Count)
system.cpu.icache.demandMisses::cpu.inst          863                       # number of demand (read+write) misses (Count)
system.cpu.icache.demandMisses::total             863                       # number of demand (read+write) misses (Count)
system.cpu.icache.overallMisses::cpu.inst          863                       # number of overall misses (Count)
system.cpu.icache.overallMisses::total            863                       # number of overall misses (Count)
system.cpu.icache.demandMissLatency::cpu.inst     55824487                       # number of demand (read+write) miss ticks (Tick)
system.cpu.icache.demandMissLatency::total     55824487                       # number of demand (read+write) miss ticks (Tick)
system.cpu.icache.overallMissLatency::cpu.inst     55824487                       # number of overall miss ticks (Tick)
system.cpu.icache.overallMissLatency::total     55824487                       # number of overall miss ticks (Tick)
system.cpu.icache.demandAccesses::cpu.inst     12082331                       # number of demand (read+write) accesses (Count)
system.cpu.icache.demandAccesses::total      12082331                       # number of demand (read+write) accesses (Count)
system.cpu.icache.overallAccesses::cpu.inst     12082331                       # number of overall (read+write) accesses (Count)
system.cpu.icache.overallAccesses::total     12082331                       # number of overall (read+write) accesses (Count)
system.cpu.icache.demandMissRate::cpu.inst     0.000071                       # miss rate for demand accesses (Ratio)
system.cpu.icache.demandMissRate::total      0.000071                       # miss rate for demand accesses (Ratio)
system.cpu.icache.overallMissRate::cpu.inst     0.000071                       # miss rate for overall accesses (Ratio)
system.cpu.icache.overallMissRate::total     0.000071                       # miss rate for overall accesses (Ratio)
system.cpu.icache.demandAvgMissLatency::cpu.inst 64686.543453                       # average overall miss latency in ticks ((Tick/Count))
system.cpu.icache.demandAvgMissLatency::total 64686.543453                       # average overall miss latency in ticks ((Tick/Count))
system.cpu.icache.overallAvgMissLatency::cpu.inst 64686.543453                       # average overall miss latency ((Tick/Count))
system.cpu.icache.overallAvgMissLatency::total 64686.543453                       # average overall miss latency ((Tick/Count))
system.cpu.icache.blockedCycles::no_mshrs        16911                       # number of cycles access was blocked (Cycle)
system.cpu.icache.blockedCycles::no_targets            0                       # number of cycles access was blocked (Cycle)
system.cpu.icache.blockedCauses::no_mshrs          193                       # number of times access was blocked (Count)
system.cpu.icache.blockedCauses::no_targets            0                       # number of times access was blocked (Count)
system.cpu.icache.avgBlocked::no_mshrs      87.621762                       # average number of cycles each access was blocked ((Cycle/Count))
[...]
system.mem_ctrls.dram.bytesPerActivate::stdev   188.310108                       # Bytes accessed per row activation (Byte)
system.mem_ctrls.dram.bytesPerActivate::0-127       616479     60.27%     60.27% # Bytes accessed per row activation (Byte)
system.mem_ctrls.dram.bytesPerActivate::128-255       224146     21.91%     82.18% # Bytes accessed per row activation (Byte)
system.mem_ctrls.dram.bytesPerActivate::256-383        79352      7.76%     89.94% # Bytes accessed per row activation (Byte)
system.mem_ctrls.dram.bytesPerActivate::384-511        36312      3.55%     93.49% # Bytes accessed per row activation (Byte)
system.mem_ctrls.dram.bytesPerActivate::512-639        20009      1.96%     95.45% # Bytes accessed per row activation (Byte)
system.mem_ctrls.dram.bytesPerActivate::640-767        13709      1.34%     96.79% # Bytes accessed per row activation (Byte)
system.mem_ctrls.dram.bytesPerActivate::768-895         9188      0.90%     97.68% # Bytes accessed per row activation (Byte)
system.mem_ctrls.dram.bytesPerActivate::896-1023         6726      0.66%     98.34% # Bytes accessed per row activation (Byte)
system.mem_ctrls.dram.bytesPerActivate::1024-1151        16960      1.66%    100.00% # Bytes accessed per row activation (Byte)
system.mem_ctrls.dram.bytesPerActivate::total      1022881                       # Bytes accessed per row activation (Byte)
system.mem_ctrls.dram.bytesRead             140151616                       # Total bytes read (Byte)
system.mem_ctrls.dram.bytesWritten           20603200                       # Total bytes written (Byte)
system.mem_ctrls.dram.avgRdBW             1290.819292                       # Average DRAM read bandwidth in MiBytes/s ((Byte/Second))
system.mem_ctrls.dram.avgWrBW              189.758840                       # Average DRAM write bandwidth in MiBytes/s ((Byte/Second))
system.mem_ctrls.dram.peakBW                 19207.00                       # Theoretical peak bandwidth in MiByte/s ((Byte/Second))
system.mem_ctrls.dram.busUtil                    7.71                       # Data bus utilization in percentage (Ratio)
system.mem_ctrls.dram.busUtilRead                6.72                       # Data bus utilization in percentage for reads (Ratio)
system.mem_ctrls.dram.busUtilWrite               0.99                       # Data bus utilization in percentage for writes (Ratio)
system.mem_ctrls.dram.pageHitRate               59.28                       # Row buffer hit rate, read and write combined (Ratio)
system.mem_ctrls.dram.power_state.pwrStateResidencyTicks::UNDEFINED 108575706000                       # Cumulative time (in ticks) in various power states (Tick)
system.mem_ctrls.dram.rank0.actEnergy    1748808996.479981                       # Energy for activate commands per rank (pJ) (Joule)
system.mem_ctrls.dram.rank0.preEnergy    2325002554.828819                       # Energy for precharge commands per rank (pJ) (Joule)
system.mem_ctrls.dram.rank0.readEnergy   5720203866.854487                       # Energy for read commands per rank (pJ) (Joule)
system.mem_ctrls.dram.rank0.writeEnergy  615273312.192008                       # Energy for write commands per rank (pJ) (Joule)
system.mem_ctrls.dram.rank0.refreshEnergy 19319091011.301048                       # Energy for refresh commands per rank (pJ) (Joule)
system.mem_ctrls.dram.rank0.actBackEnergy 91359210544.465469                       # Energy for active background per rank (pJ) (Joule)
system.mem_ctrls.dram.rank0.preBackEnergy 681313125.696031                       # Energy for precharge background per rank (pJ) (Joule)
system.mem_ctrls.dram.rank0.actPowerDownEnergy            0                       # Energy for active power-down per rank (pJ) (Joule)
system.mem_ctrls.dram.rank0.prePowerDownEnergy            0                       # Energy for precharge power-down per rank (pJ) (Joule)
system.mem_ctrls.dram.rank0.selfRefreshEnergy            0                       # Energy for self refresh per rank (pJ) (Joule)
system.mem_ctrls.dram.rank0.totalEnergy  121768903411.815033                       # Total energy per rank (pJ) (Joule)
system.mem_ctrls.dram.rank0.averagePower  1121.511505                       # Core power per rank (mW) (Watt)
system.mem_ctrls.dram.rank0.totalIdleTime            0                       # Total Idle time Per DRAM Rank (Tick)
system.mem_ctrls.dram.rank0.pwrStateTime::IDLE    651140568                       # Time in different power states (Tick)
system.mem_ctrls.dram.rank0.pwrStateTime::REF   4880750000                       # Time in different power states (Tick)
system.mem_ctrls.dram.rank0.pwrStateTime::SREF            0                       # Time in different power states (Tick)
system.mem_ctrls.dram.rank0.pwrStateTime::PRE_PDN            0                       # Time in different power states (Tick)
system.mem_ctrls.dram.rank0.pwrStateTime::ACT 103043815432                       # Time in different power states (Tick)
system.mem_ctrls.dram.rank0.pwrStateTime::ACT_PDN            0                       # Time in different power states (Tick)
system.mem_ctrls.dram.rank1.actEnergy    1441312524.287996                       # Energy for activate commands per rank (pJ) (Joule)
system.mem_ctrls.dram.rank1.preEnergy    1916210669.016014                       # Energy for precharge commands per rank (pJ) (Joule)
system.mem_ctrls.dram.rank1.readEnergy   3491078897.644742                       # Energy for read commands per rank (pJ) (Joule)
system.mem_ctrls.dram.rank1.writeEnergy  594680512.608006                       # Energy for write commands per rank (pJ) (Joule)
system.mem_ctrls.dram.rank1.refreshEnergy 19319091011.301048                       # Energy for refresh commands per rank (pJ) (Joule)
system.mem_ctrls.dram.rank1.actBackEnergy 89809968929.086838                       # Energy for active background per rank (pJ) (Joule)
system.mem_ctrls.dram.rank1.preBackEnergy 1871690864.064097                       # Energy for precharge background per rank (pJ) (Joule)
system.mem_ctrls.dram.rank1.actPowerDownEnergy            0                       # Energy for active power-down per rank (pJ) (Joule)
system.mem_ctrls.dram.rank1.prePowerDownEnergy            0                       # Energy for precharge power-down per rank (pJ) (Joule)
system.mem_ctrls.dram.rank1.selfRefreshEnergy            0                       # Energy for self refresh per rank (pJ) (Joule)
system.mem_ctrls.dram.rank1.totalEnergy  118444033408.008530                       # Total energy per rank (pJ) (Joule)
system.mem_ctrls.dram.rank1.averagePower  1090.888909                       # Core power per rank (mW) (Watt)
system.mem_ctrls.dram.rank1.totalIdleTime            0                       # Total Idle time Per DRAM Rank (Tick)
system.mem_ctrls.dram.rank1.pwrStateTime::IDLE   2471054852                       # Time in different power states (Tick)
system.mem_ctrls.dram.rank1.pwrStateTime::REF   4880750000                       # Time in different power states (Tick)
system.mem_ctrls.dram.rank1.pwrStateTime::SREF            0                       # Time in different power states (Tick)
system.mem_ctrls.dram.rank1.pwrStateTime::PRE_PDN            0                       # Time in different power states (Tick)
system.mem_ctrls.dram.rank1.pwrStateTime::ACT 101223901148                       # Time in different power states (Tick)
system.mem_ctrls.dram.rank1.pwrStateTime::ACT_PDN            0                       # Time in different power states (Tick)
system.mem_ctrls.power_state.pwrStateResidencyTicks::UNDEFINED 108575706000                       # Cumulative time (in ticks) in various power states (Tick)
system.membus.transDist::ReadResp             2078904                       # Transaction distribution (Count)
system.membus.transDist::WritebackDirty        321931                       # Transaction distribution (Count)
system.membus.transDist::CleanEvict           1697050                       # Transaction distribution (Count)
system.membus.transDist::ReadExReq             111594                       # Transaction distribution (Count)
system.membus.transDist::ReadExResp            111594                       # Transaction distribution (Count)
system.membus.transDist::ReadCleanReq         2078904                       # Transaction distribution (Count)
system.membus.transDist::InvalidateReq             24                       # Transaction distribution (Count)
system.membus.pktCount_system.l2.mem_side_port::system.mem_ctrls.port      6400001                       # Packet count per connected requestor and responder (Count)
system.membus.pktCount_system.l2.mem_side_port::total      6400001                       # Packet count per connected requestor and responder (Count)
system.membus.pktCount::total                 6400001                       # Packet count per connected requestor and responder (Count)
system.membus.pktSize_system.l2.mem_side_port::system.mem_ctrls.port    160795456                       # Cumulative packet size per connected requestor and responder (Byte)
system.membus.pktSize_system.l2.mem_side_port::total    160795456                       # Cumulative packet size per connected requestor and responder (Byte)
system.membus.pktSize::total                160795456                       # Cumulative packet size per connected requestor and responder (Byte)
system.membus.snoops                                0                       # Total snoops (Count)
system.membus.snoopTraffic                          0                       # Total snoop traffic (Byte)
system.membus.snoopFanout::samples            2190522                       # Request fanout histogram (Count)
system.membus.snoopFanout::mean                     0                       # Request fanout histogram (Count)
system.membus.snoopFanout::stdev                    0                       # Request fanout histogram (Count)
system.membus.snoopFanout::underflows               0      0.00%      0.00% # Request fanout histogram (Count)
system.membus.snoopFanout::0                  2190522    100.00%    100.00% # Request fanout histogram (Count)
system.membus.snoopFanout::1                        0      0.00%    100.00% # Request fanout histogram (Count)
system.membus.snoopFanout::2                        0      0.00%    100.00% # Request fanout histogram (Count)
system.membus.snoopFanout::overflows                0      0.00%    100.00% # Request fanout histogram (Count)
system.membus.snoopFanout::min_value                0                       # Request fanout histogram (Count)
system.membus.snoopFanout::max_value                0                       # Request fanout histogram (Count)
system.membus.snoopFanout::total              2190522                       # Request fanout histogram (Count)
system.membus.badaddr_responder.power_state.pwrStateResidencyTicks::UNDEFINED 108575706000                       # Cumulative time (in ticks) in various power states (Tick)
system.membus.power_state.pwrStateResidencyTicks::UNDEFINED 108575706000                       # Cumulative time (in ticks) in various power states (Tick)
system.membus.reqLayer4.occupancy          6030824500                       # Layer occupancy (ticks) (Tick)
system.membus.reqLayer4.utilization               0.1                       # Layer utilization (Ratio)
system.membus.respLayer2.occupancy        11665590634                       # Layer occupancy (ticks) (Tick)
system.membus.respLayer2.utilization              0.1                       # Layer utilization (Ratio)
system.membus.snoop_filter.totRequests        4209503                       # Total number of requests made to the snoop filter. (Count)
system.membus.snoop_filter.hitSingleRequests      2190629                       # Number of requests hitting in the snoop filter with a single holder of the requested data. (Count)
system.membus.snoop_filter.hitMultiRequests            0                       # Number of requests hitting in the snoop filter with multiple (>1) holders of the requested data. (Count)
system.membus.snoop_filter.totSnoops                0                       # Total number of snoops made to the snoop filter. (Count)
system.membus.snoop_filter.hitSingleSnoops            0                       # Number of snoops hitting in the snoop filter with a single holder of the requested data. (Count)
system.membus.snoop_filter.hitMultiSnoops            0                       # Number of snoops hitting in the snoop filter with multiple (>1) holders of the requested data. (Count)
system.mmcs.power_state.pwrStateResidencyTicks::UNDEFINED 108575706000                       # Cumulative time (in ticks) in various power states (Tick)
system.tol2bus.transDist::ReadResp            2300445                       # Transaction distribution (Count)
system.tol2bus.transDist::WritebackDirty       892036                       # Transaction distribution (Count)
system.tol2bus.transDist::CleanEvict          1868711                       # Transaction distribution (Count)
system.tol2bus.transDist::ReadExReq            138361                       # Transaction distribution (Count)
system.tol2bus.transDist::ReadExResp           138361                       # Transaction distribution (Count)
system.tol2bus.transDist::ReadCleanReq             14                       # Transaction distribution (Count)
system.tol2bus.transDist::ReadSharedReq       2300431                       # Transaction distribution (Count)
system.tol2bus.transDist::InvalidateReq            25                       # Transaction distribution (Count)
system.tol2bus.transDist::InvalidateResp           25                       # Transaction distribution (Count)
system.tol2bus.pktCount_system.cpu.icache.mem_side_port::system.l2.cpu_side_port           28                       # Packet count per connected requestor and responder (Count)
system.tol2bus.pktCount_system.cpu.dcache.mem_side_port::system.l2.cpu_side_port      3544386                       # Packet count per connected requestor and responder (Count)
system.tol2bus.pktCount_system.cpu.itb_walker_cache.mem_side_port::system.l2.cpu_side_port          170                       # Packet count per connected requestor and responder (Count)
system.tol2bus.pktCount_system.cpu.dtb_walker_cache.mem_side_port::system.l2.cpu_side_port      3771894                       # Packet count per connected requestor and responder (Count)
system.tol2bus.pktCount::total                7316478                       # Packet count per connected requestor and responder (Count)
system.tol2bus.pktSize_system.cpu.icache.mem_side_port::system.l2.cpu_side_port          896                       # Cumulative packet size per connected requestor and responder (Byte)
system.tol2bus.pktSize_system.cpu.dcache.mem_side_port::system.l2.cpu_side_port    112098688                       # Cumulative packet size per connected requestor and responder (Byte)
system.tol2bus.pktSize_system.cpu.itb_walker_cache.mem_side_port::system.l2.cpu_side_port         3648                       # Cumulative packet size per connected requestor and responder (Byte)
system.tol2bus.pktSize_system.cpu.dtb_walker_cache.mem_side_port::system.l2.cpu_side_port     80467072                       # Cumulative packet size per connected requestor and responder (Byte)
system.tol2bus.pktSize::total               192570304                       # Cumulative packet size per connected requestor and responder (Byte)
system.tol2bus.snoops                          321931                       # Total snoops (Count)
system.tol2bus.snoopTraffic                  20603584                       # Total snoop traffic (Byte)
system.tol2bus.snoopFanout::samples           2760762                       # Request fanout histogram (Count)
system.tol2bus.snoopFanout::mean             0.062178                       # Request fanout histogram (Count)
system.tol2bus.snoopFanout::stdev            0.241479                       # Request fanout histogram (Count)
system.tol2bus.snoopFanout::underflows              0      0.00%      0.00% # Request fanout histogram (Count)
system.tol2bus.snoopFanout::0                 2589102     93.78%     93.78% # Request fanout histogram (Count)
system.tol2bus.snoopFanout::1                  171660      6.22%    100.00% # Request fanout histogram (Count)
system.tol2bus.snoopFanout::2                       0      0.00%    100.00% # Request fanout histogram (Count)
system.tol2bus.snoopFanout::3                       0      0.00%    100.00% # Request fanout histogram (Count)
system.tol2bus.snoopFanout::4                       0      0.00%    100.00% # Request fanout histogram (Count)
system.tol2bus.snoopFanout::overflows               0      0.00%    100.00% # Request fanout histogram (Count)
system.tol2bus.snoopFanout::min_value               0                       # Request fanout histogram (Count)
system.tol2bus.snoopFanout::max_value               1                       # Request fanout histogram (Count)
system.tol2bus.snoopFanout::total             2760762                       # Request fanout histogram (Count)
system.tol2bus.power_state.pwrStateResidencyTicks::UNDEFINED 108575706000                       # Cumulative time (in ticks) in various power states (Tick)
system.tol2bus.reqLayer0.occupancy         2723876000                       # Layer occupancy (ticks) (Tick)
system.tol2bus.reqLayer0.utilization              0.0                       # Layer utilization (Ratio)
system.tol2bus.respLayer0.occupancy             14000                       # Layer occupancy (ticks) (Tick)
system.tol2bus.respLayer0.utilization             0.0                       # Layer utilization (Ratio)
system.tol2bus.respLayer1.occupancy        1181449500                       # Layer occupancy (ticks) (Tick)
system.tol2bus.respLayer1.utilization             0.0                       # Layer utilization (Ratio)
system.tol2bus.respLayer2.occupancy             59994                       # Layer occupancy (ticks) (Tick)
system.tol2bus.respLayer2.utilization             0.0                       # Layer utilization (Ratio)
system.tol2bus.respLayer3.occupancy        1257470654                       # Layer occupancy (ticks) (Tick)
system.tol2bus.respLayer3.utilization             0.0                       # Layer utilization (Ratio)
system.tol2bus.snoop_filter.totRequests       4877647                       # Total number of requests made to the snoop filter. (Count)
system.tol2bus.snoop_filter.hitSingleRequests      2438815                       # Number of requests hitting in the snoop filter with a single holder of the requested data. (Count)
system.tol2bus.snoop_filter.hitMultiRequests       171661                       # Number of requests hitting in the snoop filter with multiple (>1) holders of the requested data. (Count)
system.tol2bus.snoop_filter.totSnoops               0                       # Total number of snoops made to the snoop filter. (Count)
system.tol2bus.snoop_filter.hitSingleSnoops            0                       # Number of snoops hitting in the snoop filter with a single holder of the requested data. (Count)
system.tol2bus.snoop_filter.hitMultiSnoops            0                       # Number of snoops hitting in the snoop filter with multiple (>1) holders of the requested data. (Count)
system.uartlite.power_state.pwrStateResidencyTicks::UNDEFINED 108575706000                       # Cumulative time (in ticks) in various power states (Tick)
system.voltage_domain.voltage                       1                       # Voltage in Volts (Volt)
system.workload.inst.arm                            0                       # number of arm instructions executed (Count)
system.workload.inst.quiesce                        0                       # number of quiesce instructions executed (Count)

---------- End Simulation Statistics   ----------
