
---------- Begin Simulation Statistics ----------
simSeconds                                   0.072389                       # Number of seconds simulated (Second)
simTicks                                  72389090500                       # Number of ticks simulated (Tick)
finalTick                                 72389090500                       # Number of ticks from beginning of simulation (restored from checkpoints and never reset) (Tick)
simFreq                                  1000000000000                       # The number of ticks per simulated second ((Tick/Second))
hostSeconds                                   1349.14                       # Real time elapsed on the host (Second)
hostTickRate                                 53655679                       # The number of ticks simulated per host second (ticks/s) ((Tick/Second))
hostMemory                                   24346160                       # Number of bytes of host memory used (Byte)
simInsts                                     50000000                       # Number of instructions simulated (Count)
simOps                                       50000000                       # Number of ops (including micro ops) simulated (Count)
hostInstRate                                    37061                       # Simulator instruction rate (inst/s) ((Count/Second))
hostOpRate                                      37061                       # Simulator op (including micro ops) rate (op/s) ((Count/Second))
system.bridge.power_state.pwrStateResidencyTicks::UNDEFINED  72389090500                       # Cumulative time (in ticks) in various power states (Tick)
system.clk_domain.clock                          1000                       # Clock period in ticks (Tick)
system.cpu.numCycles                        144778182                       # Number of cpu cycles simulated (Cycle)
system.cpu.numWorkItemsStarted                      0                       # Number of work items this cpu started (Count)
system.cpu.numWorkItemsCompleted                    0                       # Number of work items this cpu completed (Count)
system.cpu.instsAdded                        79666042                       # Number of instructions added to the IQ (excludes non-spec) (Count)
system.cpu.nonSpecInstsAdded                       48                       # Number of non-speculative instructions added to the IQ (Count)
system.cpu.instsIssued                       69582400                       # Number of instructions issued (Count)
system.cpu.squashedInstsIssued                 309434                       # Number of squashed instructions issued (Count)
system.cpu.squashedInstsExamined             29665901                       # Number of squashed instructions iterated over during squash; mainly for profiling (Count)
system.cpu.squashedOperandsExamined          19206595                       # Number of squashed operands that are examined and possibly removed from graph (Count)
system.cpu.squashedNonSpecRemoved                  15                       # Number of squashed non-spec instructions that were removed (Count)
system.cpu.numIssuedDist::samples           144761163                       # Number of insts issued each cycle (Count)
system.cpu.numIssuedDist::mean               0.480670                       # Number of insts issued each cycle (Count)
system.cpu.numIssuedDist::stdev              1.349553                       # Number of insts issued each cycle (Count)
system.cpu.numIssuedDist::underflows                0      0.00%      0.00% # Number of insts issued each cycle (Count)
system.cpu.numIssuedDist::0                 120728173     83.40%     83.40% # Number of insts issued each cycle (Count)
system.cpu.numIssuedDist::1                   8126213      5.61%     89.01% # Number of insts issued each cycle (Count)
system.cpu.numIssuedDist::2                   4652862      3.21%     92.23% # Number of insts issued each cycle (Count)
system.cpu.numIssuedDist::3                   3711166      2.56%     94.79% # Number of insts issued each cycle (Count)
system.cpu.numIssuedDist::4                   2501745      1.73%     96.52% # Number of insts issued each cycle (Count)
system.cpu.numIssuedDist::5                   1901311      1.31%     97.83% # Number of insts issued each cycle (Count)
system.cpu.numIssuedDist::6                   1335610      0.92%     98.75% # Number of insts issued each cycle (Count)
system.cpu.numIssuedDist::7                    942894      0.65%     99.41% # Number of insts issued each cycle (Count)
system.cpu.numIssuedDist::8                    861189      0.59%    100.00% # Number of insts issued each cycle (Count)
system.cpu.numIssuedDist::overflows                 0      0.00%    100.00% # Number of insts issued each cycle (Count)
system.cpu.numIssuedDist::min_value                 0                       # Number of insts issued each cycle (Count)
system.cpu.numIssuedDist::max_value                 8                       # Number of insts issued each cycle (Count)
system.cpu.numIssuedDist::total             144761163                       # Number of insts issued each cycle (Count)
system.cpu.statFuBusy::No_OpClass                   0      0.00%      0.00% # attempts to use FU when none available (Count)
system.cpu.statFuBusy::IntAlu                  292966     27.34%     27.34% # attempts to use FU when none available (Count)
system.cpu.statFuBusy::IntMult                      0      0.00%     27.34% # attempts to use FU when none available (Count)
system.cpu.statFuBusy::IntDiv                       0      0.00%     27.34% # attempts to use FU when none available (Count)
system.cpu.statFuBusy::FloatAdd                  2781      0.26%     27.60% # attempts to use FU when none available (Count)
system.cpu.statFuBusy::FloatCmp                101108      9.43%     37.03% # attempts to use FU when none available (Count)
system.cpu.statFuBusy::FloatCvt                    10      0.00%     37.03% # attempts to use FU when none available (Count)
system.cpu.statFuBusy::FloatMult                28197      2.63%     39.66% # attempts to use FU when none available (Count)
system.cpu.statFuBusy::FloatMultAcc              1066      0.10%     39.76% # attempts to use FU when none available (Count)
system.cpu.statFuBusy::FloatDiv                 55091      5.14%     44.90% # attempts to use FU when none available (Count)
system.cpu.statFuBusy::FloatMisc               230582     21.52%     66.42% # attempts to use FU when none available (Count)
system.cpu.statFuBusy::FloatSqrt                    0      0.00%     66.42% # attempts to use FU when none available (Count)
system.cpu.statFuBusy::SimdAdd                      0      0.00%     66.42% # attempts to use FU when none available (Count)
system.cpu.statFuBusy::SimdAddAcc                   0      0.00%     66.42% # attempts to use FU when none available (Count)
system.cpu.statFuBusy::SimdAlu                      0      0.00%     66.42% # attempts to use FU when none available (Count)
system.cpu.statFuBusy::SimdCmp                      0      0.00%     66.42% # attempts to use FU when none available (Count)
system.cpu.statFuBusy::SimdCvt                      0      0.00%     66.42% # attempts to use FU when none available (Count)
system.cpu.statFuBusy::SimdMisc                     0      0.00%     66.42% # attempts to use FU when none available (Count)
system.cpu.statFuBusy::SimdMult                     0      0.00%     66.42% # attempts to use FU when none available (Count)
system.cpu.statFuBusy::SimdMultAcc                  0      0.00%     66.42% # attempts to use FU when none available (Count)
system.cpu.statFuBusy::SimdShift                    0      0.00%     66.42% # attempts to use FU when none available (Count)
system.cpu.statFuBusy::SimdShiftAcc                 0      0.00%     66.42% # attempts to use FU when none available (Count)
system.cpu.statFuBusy::SimdDiv                      0      0.00%     66.42% # attempts to use FU when none available (Count)
system.cpu.statFuBusy::SimdSqrt                     0      0.00%     66.42% # attempts to use FU when none available (Count)
system.cpu.statFuBusy::SimdFloatAdd                 0      0.00%     66.42% # attempts to use FU when none available (Count)
system.cpu.statFuBusy::SimdFloatAlu                 0      0.00%     66.42% # attempts to use FU when none available (Count)
system.cpu.statFuBusy::SimdFloatCmp                 0      0.00%     66.42% # attempts to use FU when none available (Count)
system.cpu.statFuBusy::SimdFloatCvt                 0      0.00%     66.42% # attempts to use FU when none available (Count)
system.cpu.statFuBusy::SimdFloatDiv                 0      0.00%     66.42% # attempts to use FU when none available (Count)
system.cpu.statFuBusy::SimdFloatMisc                0      0.00%     66.42% # attempts to use FU when none available (Count)
system.cpu.statFuBusy::SimdFloatMult                0      0.00%     66.42% # attempts to use FU when none available (Count)
system.cpu.statFuBusy::SimdFloatMultAcc             0      0.00%     66.42% # attempts to use FU when none available (Count)
system.cpu.statFuBusy::SimdFloatSqrt                0      0.00%     66.42% # attempts to use FU when none available (Count)
system.cpu.statFuBusy::SimdReduceAdd                0      0.00%     66.42% # attempts to use FU when none available (Count)
system.cpu.statFuBusy::SimdReduceAlu                0      0.00%     66.42% # attempts to use FU when none available (Count)
system.cpu.statFuBusy::SimdReduceCmp                0      0.00%     66.42% # attempts to use FU when none available (Count)
system.cpu.statFuBusy::SimdFloatReduceAdd            0      0.00%     66.42% # attempts to use FU when none available (Count)
system.cpu.statFuBusy::SimdFloatReduceCmp            0      0.00%     66.42% # attempts to use FU when none available (Count)
system.cpu.statFuBusy::SimdAes                      0      0.00%     66.42% # attempts to use FU when none available (Count)
system.cpu.statFuBusy::SimdAesMix                   0      0.00%     66.42% # attempts to use FU when none available (Count)
system.cpu.statFuBusy::SimdSha1Hash                 0      0.00%     66.42% # attempts to use FU when none available (Count)
system.cpu.statFuBusy::SimdSha1Hash2                0      0.00%     66.42% # attempts to use FU when none available (Count)
system.cpu.statFuBusy::SimdSha256Hash               0      0.00%     66.42% # attempts to use FU when none available (Count)
system.cpu.statFuBusy::SimdSha256Hash2              0      0.00%     66.42% # attempts to use FU when none available (Count)
system.cpu.statFuBusy::SimdShaSigma2                0      0.00%     66.42% # attempts to use FU when none available (Count)
system.cpu.statFuBusy::SimdShaSigma3                0      0.00%     66.42% # attempts to use FU when none available (Count)
system.cpu.statFuBusy::SimdPredAlu                  0      0.00%     66.42% # attempts to use FU when none available (Count)
system.cpu.statFuBusy::MemRead                 219325     20.47%     86.88% # attempts to use FU when none available (Count)
system.cpu.statFuBusy::MemWrite                110059     10.27%     97.15% # attempts to use FU when none available (Count)
system.cpu.statFuBusy::FloatMemRead             28657      2.67%     99.83% # attempts to use FU when none available (Count)
system.cpu.statFuBusy::FloatMemWrite             1864      0.17%    100.00% # attempts to use FU when none available (Count)
system.cpu.statFuBusy::IprAccess                    0      0.00%    100.00% # attempts to use FU when none available (Count)
system.cpu.statFuBusy::InstPrefetch                 0      0.00%    100.00% # attempts to use FU when none available (Count)
system.cpu.statIssuedInstType_0::No_OpClass           35      0.00%      0.00% # Number of instructions issued per FU type, per thread (Count)
system.cpu.statIssuedInstType_0::IntAlu      40275898     57.88%     57.88% # Number of instructions issued per FU type, per thread (Count)
system.cpu.statIssuedInstType_0::IntMult          460      0.00%     57.88% # Number of instructions issued per FU type, per thread (Count)
system.cpu.statIssuedInstType_0::IntDiv             0      0.00%     57.88% # Number of instructions issued per FU type, per thread (Count)
system.cpu.statIssuedInstType_0::FloatAdd       238276      0.34%     58.23% # Number of instructions issued per FU type, per thread (Count)
system.cpu.statIssuedInstType_0::FloatCmp      3442904      4.95%     63.17% # Number of instructions issued per FU type, per thread (Count)
system.cpu.statIssuedInstType_0::FloatCvt        61610      0.09%     63.26% # Number of instructions issued per FU type, per thread (Count)
system.cpu.statIssuedInstType_0::FloatMult       360730      0.52%     63.78% # Number of instructions issued per FU type, per thread (Count)
system.cpu.statIssuedInstType_0::FloatMultAcc       745014      1.07%     64.85% # Number of instructions issued per FU type, per thread (Count)
system.cpu.statIssuedInstType_0::FloatDiv       135122      0.19%     65.05% # Number of instructions issued per FU type, per thread (Count)
system.cpu.statIssuedInstType_0::FloatMisc      2155441      3.10%     68.14% # Number of instructions issued per FU type, per thread (Count)
system.cpu.statIssuedInstType_0::FloatSqrt            0      0.00%     68.14% # Number of instructions issued per FU type, per thread (Count)
system.cpu.statIssuedInstType_0::SimdAdd            0      0.00%     68.14% # Number of instructions issued per FU type, per thread (Count)
system.cpu.statIssuedInstType_0::SimdAddAcc            0      0.00%     68.14% # Number of instructions issued per FU type, per thread (Count)
system.cpu.statIssuedInstType_0::SimdAlu            0      0.00%     68.14% # Number of instructions issued per FU type, per thread (Count)
system.cpu.statIssuedInstType_0::SimdCmp            0      0.00%     68.14% # Number of instructions issued per FU type, per thread (Count)
system.cpu.statIssuedInstType_0::SimdCvt            0      0.00%     68.14% # Number of instructions issued per FU type, per thread (Count)
system.cpu.statIssuedInstType_0::SimdMisc            0      0.00%     68.14% # Number of instructions issued per FU type, per thread (Count)
system.cpu.statIssuedInstType_0::SimdMult            0      0.00%     68.14% # Number of instructions issued per FU type, per thread (Count)
system.cpu.statIssuedInstType_0::SimdMultAcc            0      0.00%     68.14% # Number of instructions issued per FU type, per thread (Count)
system.cpu.statIssuedInstType_0::SimdShift            0      0.00%     68.14% # Number of instructions issued per FU type, per thread (Count)
system.cpu.statIssuedInstType_0::SimdShiftAcc            0      0.00%     68.14% # Number of instructions issued per FU type, per thread (Count)
system.cpu.statIssuedInstType_0::SimdDiv            0      0.00%     68.14% # Number of instructions issued per FU type, per thread (Count)
system.cpu.statIssuedInstType_0::SimdSqrt            0      0.00%     68.14% # Number of instructions issued per FU type, per thread (Count)
system.cpu.statIssuedInstType_0::SimdFloatAdd            0      0.00%     68.14% # Number of instructions issued per FU type, per thread (Count)
system.cpu.statIssuedInstType_0::SimdFloatAlu            0      0.00%     68.14% # Number of instructions issued per FU type, per thread (Count)
system.cpu.statIssuedInstType_0::SimdFloatCmp            0      0.00%     68.14% # Number of instructions issued per FU type, per thread (Count)
system.cpu.statIssuedInstType_0::SimdFloatCvt            0      0.00%     68.14% # Number of instructions issued per FU type, per thread (Count)
system.cpu.statIssuedInstType_0::SimdFloatDiv            0      0.00%     68.14% # Number of instructions issued per FU type, per thread (Count)
system.cpu.statIssuedInstType_0::SimdFloatMisc            0      0.00%     68.14% # Number of instructions issued per FU type, per thread (Count)
system.cpu.statIssuedInstType_0::SimdFloatMult            0      0.00%     68.14% # Number of instructions issued per FU type, per thread (Count)
system.cpu.statIssuedInstType_0::SimdFloatMultAcc            0      0.00%     68.14% # Number of instructions issued per FU type, per thread (Count)
system.cpu.statIssuedInstType_0::SimdFloatSqrt            0      0.00%     68.14% # Number of instructions issued per FU type, per thread (Count)
system.cpu.statIssuedInstType_0::SimdReduceAdd            0      0.00%     68.14% # Number of instructions issued per FU type, per thread (Count)
system.cpu.statIssuedInstType_0::SimdReduceAlu            0      0.00%     68.14% # Number of instructions issued per FU type, per thread (Count)
system.cpu.statIssuedInstType_0::SimdReduceCmp            0      0.00%     68.14% # Number of instructions issued per FU type, per thread (Count)
system.cpu.statIssuedInstType_0::SimdFloatReduceAdd            0      0.00%     68.14% # Number of instructions issued per FU type, per thread (Count)
system.cpu.statIssuedInstType_0::SimdFloatReduceCmp            0      0.00%     68.14% # Number of instructions issued per FU type, per thread (Count)
system.cpu.statIssuedInstType_0::SimdAes            0      0.00%     68.14% # Number of instructions issued per FU type, per thread (Count)
system.cpu.statIssuedInstType_0::SimdAesMix            0      0.00%     68.14% # Number of instructions issued per FU type, per thread (Count)
system.cpu.statIssuedInstType_0::SimdSha1Hash            0      0.00%     68.14% # Number of instructions issued per FU type, per thread (Count)
system.cpu.statIssuedInstType_0::SimdSha1Hash2            0      0.00%     68.14% # Number of instructions issued per FU type, per thread (Count)
system.cpu.statIssuedInstType_0::SimdSha256Hash            0      0.00%     68.14% # Number of instructions issued per FU type, per thread (Count)
system.cpu.statIssuedInstType_0::SimdSha256Hash2            0      0.00%     68.14% # Number of instructions issued per FU type, per thread (Count)
system.cpu.statIssuedInstType_0::SimdShaSigma2            0      0.00%     68.14% # Number of instructions issued per FU type, per thread (Count)
system.cpu.statIssuedInstType_0::SimdShaSigma3            0      0.00%     68.14% # Number of instructions issued per FU type, per thread (Count)
system.cpu.statIssuedInstType_0::SimdPredAlu            0      0.00%     68.14% # Number of instructions issued per FU type, per thread (Count)
system.cpu.statIssuedInstType_0::MemRead     10334060     14.85%     82.99% # Number of instructions issued per FU type, per thread (Count)
system.cpu.statIssuedInstType_0::MemWrite      3857773      5.54%     88.54% # Number of instructions issued per FU type, per thread (Count)
system.cpu.statIssuedInstType_0::FloatMemRead      6791819      9.76%     98.30% # Number of instructions issued per FU type, per thread (Count)
system.cpu.statIssuedInstType_0::FloatMemWrite      1183258      1.70%    100.00% # Number of instructions issued per FU type, per thread (Count)
system.cpu.statIssuedInstType_0::IprAccess            0      0.00%    100.00% # Number of instructions issued per FU type, per thread (Count)
system.cpu.statIssuedInstType_0::InstPrefetch            0      0.00%    100.00% # Number of instructions issued per FU type, per thread (Count)
system.cpu.statIssuedInstType_0::total       69582400                       # Number of instructions issued per FU type, per thread (Count)
system.cpu.issueRate                         0.480614                       # Inst issue rate ((Count/Cycle))
system.cpu.fuBusy                             1071706                       # FU busy when requested (Count)
system.cpu.fuBusyRate                        0.015402                       # FU busy rate (busy events/executed inst) ((Count/Count))
system.cpu.intInstQueueReads                254520066                       # Number of integer instruction queue reads (Count)
system.cpu.intInstQueueWrites                84416382                       # Number of integer instruction queue writes (Count)
system.cpu.intInstQueueWakeupAccesses        52526128                       # Number of integer instruction queue wakeup accesses (Count)
system.cpu.fpInstQueueReads                  30787024                       # Number of floating instruction queue reads (Count)
system.cpu.fpInstQueueWrites                 24921496                       # Number of floating instruction queue writes (Count)
system.cpu.fpInstQueueWakeupAccesses         13827305                       # Number of floating instruction queue wakeup accesses (Count)
system.cpu.vecInstQueueReads                        0                       # Number of vector instruction queue reads (Count)
system.cpu.vecInstQueueWrites                       0                       # Number of vector instruction queue writes (Count)
system.cpu.vecInstQueueWakeupAccesses               0                       # Number of vector instruction queue wakeup accesses (Count)
system.cpu.intAluAccesses                    55090541                       # Number of integer alu accesses (Count)
system.cpu.fpAluAccesses                     15563530                       # Number of floating point alu accesses (Count)
system.cpu.vecAluAccesses                           0                       # Number of vector alu accesses (Count)
system.cpu.numInsts                          67621117                       # Number of executed instructions (Count)
system.cpu.numLoadInsts                      15827773                       # Number of load instructions executed (Count)
system.cpu.numSquashedInsts                    870888                       # Number of squashed instructions skipped in execute (Count)
system.cpu.numSwp                                   0                       # Number of swp insts executed (Count)
system.cpu.numNop                                   0                       # Number of nop insts executed (Count)
system.cpu.numRefs                           20647367                       # Number of memory reference insts executed (Count)
system.cpu.numBranches                        9885467                       # Number of branches executed (Count)
system.cpu.numStoreInsts                      4819594                       # Number of stores executed (Count)
system.cpu.numRate                           0.467067                       # Inst execution rate ((Count/Cycle))
system.cpu.timesIdled                             192                       # Number of times that the entire CPU went into an idle state and unscheduled itself (Count)
system.cpu.idleCycles                           17019                       # Total number of cycles that the CPU has spent unscheduled due to idling (Cycle)
system.cpu.committedInsts                    50000000                       # Number of Instructions Simulated (Count)
system.cpu.committedOps                      50000000                       # Number of Ops (including micro ops) Simulated (Count)
system.cpu.cpi                               2.895564                       # CPI: Cycles Per Instruction ((Cycle/Count))
system.cpu.totalCpi                          2.895564                       # CPI: Total CPI of All Threads ((Cycle/Count))
system.cpu.ipc                               0.345356                       # IPC: Instructions Per Cycle ((Count/Cycle))
system.cpu.totalIpc                          0.345356                       # IPC: Total IPC of All Threads ((Count/Cycle))
system.cpu.intRegfileReads                   78746440                       # Number of integer regfile reads (Count)
system.cpu.intRegfileWrites                  42631685                       # Number of integer regfile writes (Count)
system.cpu.fpRegfileReads                    15937908                       # Number of floating regfile reads (Count)
system.cpu.fpRegfileWrites                    9378535                       # Number of floating regfile writes (Count)
system.cpu.miscRegfileReads                1171709597                       # number of misc regfile reads (Count)
system.cpu.miscRegfileWrites                 10433579                       # number of misc regfile writes (Count)
system.cpu.lastCommitTick                 72389090500                       # The last tick to commit an instruction (Count)
system.cpu.MemDepUnit__0.insertedLoads       17995116                       # Number of loads inserted to the mem dependence unit. (Count)
system.cpu.MemDepUnit__0.insertedStores       5982902                       # Number of stores inserted to the mem dependence unit. (Count)
system.cpu.MemDepUnit__0.conflictingLoads      2496612                       # Number of conflicting loads. (Count)
system.cpu.MemDepUnit__0.conflictingStores      2102840                       # Number of conflicting stores. (Count)
system.cpu.MemDepUnit__1.insertedLoads              0                       # Number of loads inserted to the mem dependence unit. (Count)
system.cpu.MemDepUnit__1.insertedStores             0                       # Number of stores inserted to the mem dependence unit. (Count)
system.cpu.MemDepUnit__1.conflictingLoads            0                       # Number of conflicting loads. (Count)
system.cpu.MemDepUnit__1.conflictingStores            0                       # Number of conflicting stores. (Count)
system.cpu.MemDepUnit__2.insertedLoads              0                       # Number of loads inserted to the mem dependence unit. (Count)
system.cpu.MemDepUnit__2.insertedStores             0                       # Number of stores inserted to the mem dependence unit. (Count)
system.cpu.MemDepUnit__2.conflictingLoads            0                       # Number of conflicting loads. (Count)
system.cpu.MemDepUnit__2.conflictingStores            0                       # Number of conflicting stores. (Count)
system.cpu.MemDepUnit__3.insertedLoads              0                       # Number of loads inserted to the mem dependence unit. (Count)
system.cpu.MemDepUnit__3.insertedStores             0                       # Number of stores inserted to the mem dependence unit. (Count)
system.cpu.MemDepUnit__3.conflictingLoads            0                       # Number of conflicting loads. (Count)
system.cpu.MemDepUnit__3.conflictingStores            0                       # Number of conflicting stores. (Count)
system.cpu.branchPred.lookups                       0                       # Number of BP lookups (Count)
system.cpu.branchPred.condPredicted                 0                       # Number of conditional branches predicted (Count)
system.cpu.branchPred.condIncorrect            578284                       # Number of conditional branches incorrect (Count)
system.cpu.branchPred.BTBLookups                    0                       # Number of BTB lookups (Count)
system.cpu.branchPred.BTBHits                       0                       # Number of BTB hits (Count)
system.cpu.branchPred.BTBHitRatio                 nan                       # BTB Hit Ratio (Ratio)
system.cpu.branchPred.RASUsed                       0                       # Number of times the RAS was used to get a target. (Count)
system.cpu.branchPred.RASIncorrect                773                       # Number of incorrect RAS predictions. (Count)
system.cpu.branchPred.indirectLookups               0                       # Number of indirect predictor lookups. (Count)
system.cpu.branchPred.indirectHits                  0                       # Number of indirect target hits. (Count)
system.cpu.branchPred.indirectMisses                0                       # Number of indirect misses. (Count)
system.cpu.branchPred.indirectMispredicted          814                       # Number of mispredicted indirect branches. (Count)
system.cpu.branchPred.stream_tage.coldMisses            0                       # ittage the provider component lookup hit (Count)
system.cpu.branchPred.stream_tage.capacityMisses            0                       # ittage the alternate prediction lookup hit (Count)
system.cpu.branchPred.stream_tage.compulsoryMisses            0                       # ittage the provider component pred hit (Count)
system.cpu.branchPred.stream_tage.providerTableDist::samples     34688850                       # the distribution of provider component (Count)
system.cpu.branchPred.stream_tage.providerTableDist::mean     3.870771                       # the distribution of provider component (Count)
system.cpu.branchPred.stream_tage.providerTableDist::stdev     3.671800                       # the distribution of provider component (Count)
system.cpu.branchPred.stream_tage.providerTableDist::underflows            0      0.00%      0.00% # the distribution of provider component (Count)
system.cpu.branchPred.stream_tage.providerTableDist::0     10667128     30.75%     30.75% # the distribution of provider component (Count)
system.cpu.branchPred.stream_tage.providerTableDist::1      1940423      5.59%     36.34% # the distribution of provider component (Count)
system.cpu.branchPred.stream_tage.providerTableDist::2      3480314     10.03%     46.38% # the distribution of provider component (Count)
system.cpu.branchPred.stream_tage.providerTableDist::3      2783375      8.02%     54.40% # the distribution of provider component (Count)
system.cpu.branchPred.stream_tage.providerTableDist::4      1609218      4.64%     59.04% # the distribution of provider component (Count)
system.cpu.branchPred.stream_tage.providerTableDist::5      1897259      5.47%     64.51% # the distribution of provider component (Count)
system.cpu.branchPred.stream_tage.providerTableDist::6      2150394      6.20%     70.71% # the distribution of provider component (Count)
system.cpu.branchPred.stream_tage.providerTableDist::7      3169898      9.14%     79.85% # the distribution of provider component (Count)
system.cpu.branchPred.stream_tage.providerTableDist::8      2442260      7.04%     86.89% # the distribution of provider component (Count)
system.cpu.branchPred.stream_tage.providerTableDist::9      2004179      5.78%     92.67% # the distribution of provider component (Count)
system.cpu.branchPred.stream_tage.providerTableDist::10      1080195      3.11%     95.78% # the distribution of provider component (Count)
system.cpu.branchPred.stream_tage.providerTableDist::11       632913      1.82%     97.60% # the distribution of provider component (Count)
system.cpu.branchPred.stream_tage.providerTableDist::12       315522      0.91%     98.51% # the distribution of provider component (Count)
system.cpu.branchPred.stream_tage.providerTableDist::13       340156      0.98%     99.49% # the distribution of provider component (Count)
system.cpu.branchPred.stream_tage.providerTableDist::14       175616      0.51%    100.00% # the distribution of provider component (Count)
system.cpu.branchPred.stream_tage.providerTableDist::15            0      0.00%    100.00% # the distribution of provider component (Count)
system.cpu.branchPred.stream_tage.providerTableDist::16            0      0.00%    100.00% # the distribution of provider component (Count)
system.cpu.branchPred.stream_tage.providerTableDist::17            0      0.00%    100.00% # the distribution of provider component (Count)
system.cpu.branchPred.stream_tage.providerTableDist::18            0      0.00%    100.00% # the distribution of provider component (Count)
system.cpu.branchPred.stream_tage.providerTableDist::19            0      0.00%    100.00% # the distribution of provider component (Count)
system.cpu.branchPred.stream_tage.providerTableDist::20            0      0.00%    100.00% # the distribution of provider component (Count)
system.cpu.branchPred.stream_tage.providerTableDist::21            0      0.00%    100.00% # the distribution of provider component (Count)
system.cpu.branchPred.stream_tage.providerTableDist::overflows            0      0.00%    100.00% # the distribution of provider component (Count)
system.cpu.branchPred.stream_tage.providerTableDist::min_value            0                       # the distribution of provider component (Count)
system.cpu.branchPred.stream_tage.providerTableDist::max_value           14                       # the distribution of provider component (Count)
system.cpu.branchPred.stream_tage.providerTableDist::total     34688850                       # the distribution of provider component (Count)
system.cpu.commit.commitSquashedInsts        29776395                       # The number of squashed insts skipped by commit (Count)
system.cpu.commit.commitNonSpecStalls              33                       # The number of times commit has been forced to stall to communicate backwards (Count)
system.cpu.commit.branchMispredicts            579097                       # The number of times a branch was mispredicted (Count)
system.cpu.commit.numCommittedDist::samples    140535472                       # Number of insts commited each cycle (Count)
system.cpu.commit.numCommittedDist::mean     0.355782                       # Number of insts commited each cycle (Count)
system.cpu.commit.numCommittedDist::stdev     1.481607                       # Number of insts commited each cycle (Count)
system.cpu.commit.numCommittedDist::underflows            0      0.00%      0.00% # Number of insts commited each cycle (Count)
system.cpu.commit.numCommittedDist::0       128967245     91.77%     91.77% # Number of insts commited each cycle (Count)
system.cpu.commit.numCommittedDist::1         3998858      2.85%     94.61% # Number of insts commited each cycle (Count)
system.cpu.commit.numCommittedDist::2         1022561      0.73%     95.34% # Number of insts commited each cycle (Count)
system.cpu.commit.numCommittedDist::3          946069      0.67%     96.01% # Number of insts commited each cycle (Count)
system.cpu.commit.numCommittedDist::4          334274      0.24%     96.25% # Number of insts commited each cycle (Count)
system.cpu.commit.numCommittedDist::5          296605      0.21%     96.46% # Number of insts commited each cycle (Count)
system.cpu.commit.numCommittedDist::6          383176      0.27%     96.74% # Number of insts commited each cycle (Count)
system.cpu.commit.numCommittedDist::7          694836      0.49%     97.23% # Number of insts commited each cycle (Count)
system.cpu.commit.numCommittedDist::8         3891848      2.77%    100.00% # Number of insts commited each cycle (Count)
system.cpu.commit.numCommittedDist::overflows            0      0.00%    100.00% # Number of insts commited each cycle (Count)
system.cpu.commit.numCommittedDist::min_value            0                       # Number of insts commited each cycle (Count)
system.cpu.commit.numCommittedDist::max_value            8                       # Number of insts commited each cycle (Count)
system.cpu.commit.numCommittedDist::total    140535472                       # Number of insts commited each cycle (Count)
system.cpu.commit.instsCommitted             50000000                       # Number of instructions committed (Count)
system.cpu.commit.opsCommitted               50000000                       # Number of ops (including micro ops) committed (Count)
system.cpu.commit.memRefs                    15503240                       # Number of memory references committed (Count)
system.cpu.commit.loads                      11155251                       # Number of loads committed (Count)
system.cpu.commit.amos                              0                       # Number of atomic instructions committed (Count)
system.cpu.commit.membars                           0                       # Number of memory barriers committed (Count)
system.cpu.commit.branches                    7604324                       # Number of branches committed (Count)
system.cpu.commit.vectorInstructions                0                       # Number of committed Vector instructions. (Count)
system.cpu.commit.floating                   11496059                       # Number of committed floating point instructions. (Count)
system.cpu.commit.integer                    46872232                       # Number of committed integer instructions. (Count)
system.cpu.commit.functionCalls                 64972                       # Number of function calls committed. (Count)
system.cpu.commit.committedInstType_0::No_OpClass           32      0.00%      0.00% # Class of committed instruction (Count)
system.cpu.commit.committedInstType_0::IntAlu     28646274     57.29%     57.29% # Class of committed instruction (Count)
system.cpu.commit.committedInstType_0::IntMult          380      0.00%     57.29% # Class of committed instruction (Count)
system.cpu.commit.committedInstType_0::IntDiv            0      0.00%     57.29% # Class of committed instruction (Count)
system.cpu.commit.committedInstType_0::FloatAdd       227207      0.45%     57.75% # Class of committed instruction (Count)
system.cpu.commit.committedInstType_0::FloatCmp      2797398      5.59%     63.34% # Class of committed instruction (Count)
system.cpu.commit.committedInstType_0::FloatCvt        42795      0.09%     63.43% # Class of committed instruction (Count)
system.cpu.commit.committedInstType_0::FloatMult       294103      0.59%     64.02% # Class of committed instruction (Count)
system.cpu.commit.committedInstType_0::FloatMultAcc       734391      1.47%     65.49% # Class of committed instruction (Count)
system.cpu.commit.committedInstType_0::FloatDiv       117390      0.23%     65.72% # Class of committed instruction (Count)
system.cpu.commit.committedInstType_0::FloatMisc      1636790      3.27%     68.99% # Class of committed instruction (Count)
system.cpu.commit.committedInstType_0::FloatSqrt            0      0.00%     68.99% # Class of committed instruction (Count)
system.cpu.commit.committedInstType_0::SimdAdd            0      0.00%     68.99% # Class of committed instruction (Count)
system.cpu.commit.committedInstType_0::SimdAddAcc            0      0.00%     68.99% # Class of committed instruction (Count)
system.cpu.commit.committedInstType_0::SimdAlu            0      0.00%     68.99% # Class of committed instruction (Count)
system.cpu.commit.committedInstType_0::SimdCmp            0      0.00%     68.99% # Class of committed instruction (Count)
system.cpu.commit.committedInstType_0::SimdCvt            0      0.00%     68.99% # Class of committed instruction (Count)
system.cpu.commit.committedInstType_0::SimdMisc            0      0.00%     68.99% # Class of committed instruction (Count)
system.cpu.commit.committedInstType_0::SimdMult            0      0.00%     68.99% # Class of committed instruction (Count)
system.cpu.commit.committedInstType_0::SimdMultAcc            0      0.00%     68.99% # Class of committed instruction (Count)
system.cpu.commit.committedInstType_0::SimdShift            0      0.00%     68.99% # Class of committed instruction (Count)
system.cpu.commit.committedInstType_0::SimdShiftAcc            0      0.00%     68.99% # Class of committed instruction (Count)
system.cpu.commit.committedInstType_0::SimdDiv            0      0.00%     68.99% # Class of committed instruction (Count)
system.cpu.commit.committedInstType_0::SimdSqrt            0      0.00%     68.99% # Class of committed instruction (Count)
system.cpu.commit.committedInstType_0::SimdFloatAdd            0      0.00%     68.99% # Class of committed instruction (Count)
system.cpu.commit.committedInstType_0::SimdFloatAlu            0      0.00%     68.99% # Class of committed instruction (Count)
system.cpu.commit.committedInstType_0::SimdFloatCmp            0      0.00%     68.99% # Class of committed instruction (Count)
system.cpu.commit.committedInstType_0::SimdFloatCvt            0      0.00%     68.99% # Class of committed instruction (Count)
system.cpu.commit.committedInstType_0::SimdFloatDiv            0      0.00%     68.99% # Class of committed instruction (Count)
system.cpu.commit.committedInstType_0::SimdFloatMisc            0      0.00%     68.99% # Class of committed instruction (Count)
system.cpu.commit.committedInstType_0::SimdFloatMult            0      0.00%     68.99% # Class of committed instruction (Count)
system.cpu.commit.committedInstType_0::SimdFloatMultAcc            0      0.00%     68.99% # Class of committed instruction (Count)
system.cpu.commit.committedInstType_0::SimdFloatSqrt            0      0.00%     68.99% # Class of committed instruction (Count)
system.cpu.commit.committedInstType_0::SimdReduceAdd            0      0.00%     68.99% # Class of committed instruction (Count)
system.cpu.commit.committedInstType_0::SimdReduceAlu            0      0.00%     68.99% # Class of committed instruction (Count)
system.cpu.commit.committedInstType_0::SimdReduceCmp            0      0.00%     68.99% # Class of committed instruction (Count)
system.cpu.commit.committedInstType_0::SimdFloatReduceAdd            0      0.00%     68.99% # Class of committed instruction (Count)
system.cpu.commit.committedInstType_0::SimdFloatReduceCmp            0      0.00%     68.99% # Class of committed instruction (Count)
system.cpu.commit.committedInstType_0::SimdAes            0      0.00%     68.99% # Class of committed instruction (Count)
system.cpu.commit.committedInstType_0::SimdAesMix            0      0.00%     68.99% # Class of committed instruction (Count)
system.cpu.commit.committedInstType_0::SimdSha1Hash            0      0.00%     68.99% # Class of committed instruction (Count)
system.cpu.commit.committedInstType_0::SimdSha1Hash2            0      0.00%     68.99% # Class of committed instruction (Count)
system.cpu.commit.committedInstType_0::SimdSha256Hash            0      0.00%     68.99% # Class of committed instruction (Count)
system.cpu.commit.committedInstType_0::SimdSha256Hash2            0      0.00%     68.99% # Class of committed instruction (Count)
system.cpu.commit.committedInstType_0::SimdShaSigma2            0      0.00%     68.99% # Class of committed instruction (Count)
system.cpu.commit.committedInstType_0::SimdShaSigma3            0      0.00%     68.99% # Class of committed instruction (Count)
system.cpu.commit.committedInstType_0::SimdPredAlu            0      0.00%     68.99% # Class of committed instruction (Count)
system.cpu.commit.committedInstType_0::MemRead      6571772     13.14%     82.14% # Class of committed instruction (Count)
system.cpu.commit.committedInstType_0::MemWrite      3285483      6.57%     88.71% # Class of committed instruction (Count)
system.cpu.commit.committedInstType_0::FloatMemRead      4583479      9.17%     97.87% # Class of committed instruction (Count)
system.cpu.commit.committedInstType_0::FloatMemWrite      1062506      2.13%    100.00% # Class of committed instruction (Count)
system.cpu.commit.committedInstType_0::IprAccess            0      0.00%    100.00% # Class of committed instruction (Count)
system.cpu.commit.committedInstType_0::InstPrefetch            0      0.00%    100.00% # Class of committed instruction (Count)
system.cpu.commit.committedInstType_0::total     50000000                       # Class of committed instruction (Count)
system.cpu.commit.commitEligibleSamples       3891848                       # number cycles where commit BW limit reached (Cycle)
system.cpu.dcache.demandHits::cpu.data       12812685                       # number of demand (read+write) hits (Count)
system.cpu.dcache.demandHits::total          12812685                       # number of demand (read+write) hits (Count)
system.cpu.dcache.overallHits::cpu.data      12812685                       # number of overall hits (Count)
system.cpu.dcache.overallHits::total         12812685                       # number of overall hits (Count)
system.cpu.dcache.demandMisses::cpu.data      6873021                       # number of demand (read+write) misses (Count)
system.cpu.dcache.demandMisses::total         6873021                       # number of demand (read+write) misses (Count)
system.cpu.dcache.overallMisses::cpu.data      6873021                       # number of overall misses (Count)
system.cpu.dcache.overallMisses::total        6873021                       # number of overall misses (Count)
system.cpu.dcache.demandMissLatency::cpu.data 367831088113                       # number of demand (read+write) miss ticks (Tick)
system.cpu.dcache.demandMissLatency::total 367831088113                       # number of demand (read+write) miss ticks (Tick)
system.cpu.dcache.overallMissLatency::cpu.data 367831088113                       # number of overall miss ticks (Tick)
system.cpu.dcache.overallMissLatency::total 367831088113                       # number of overall miss ticks (Tick)
system.cpu.dcache.demandAccesses::cpu.data     19685706                       # number of demand (read+write) accesses (Count)
system.cpu.dcache.demandAccesses::total      19685706                       # number of demand (read+write) accesses (Count)
system.cpu.dcache.overallAccesses::cpu.data     19685706                       # number of overall (read+write) accesses (Count)
system.cpu.dcache.overallAccesses::total     19685706                       # number of overall (read+write) accesses (Count)
system.cpu.dcache.demandMissRate::cpu.data     0.349138                       # miss rate for demand accesses (Ratio)
system.cpu.dcache.demandMissRate::total      0.349138                       # miss rate for demand accesses (Ratio)
system.cpu.dcache.overallMissRate::cpu.data     0.349138                       # miss rate for overall accesses (Ratio)
system.cpu.dcache.overallMissRate::total     0.349138                       # miss rate for overall accesses (Ratio)
system.cpu.dcache.demandAvgMissLatency::cpu.data 53518.109157                       # average overall miss latency in ticks ((Tick/Count))
system.cpu.dcache.demandAvgMissLatency::total 53518.109157                       # average overall miss latency in ticks ((Tick/Count))
system.cpu.dcache.overallAvgMissLatency::cpu.data 53518.109157                       # average overall miss latency ((Tick/Count))
system.cpu.dcache.overallAvgMissLatency::total 53518.109157                       # average overall miss latency ((Tick/Count))
system.cpu.dcache.blockedCycles::no_mshrs       334397                       # number of cycles access was blocked (Cycle)
system.cpu.dcache.blockedCycles::no_targets         5441                       # number of cycles access was blocked (Cycle)
system.cpu.dcache.blockedCauses::no_mshrs        20932                       # number of times access was blocked (Count)
system.cpu.dcache.blockedCauses::no_targets          151                       # number of times access was blocked (Count)
system.cpu.dcache.avgBlocked::no_mshrs      15.975397                       # average number of cycles each access was blocked ((Cycle/Count))
system.cpu.dcache.avgBlocked::no_targets    36.033113                       # average number of cycles each access was blocked ((Cycle/Count))
system.cpu.dcache.writebacks::writebacks      1273618                       # number of writebacks (Count)
system.cpu.dcache.writebacks::total           1273618                       # number of writebacks (Count)
system.cpu.dcache.demandMshrHits::cpu.data      4384601                       # number of demand (read+write) MSHR hits (Count)
system.cpu.dcache.demandMshrHits::total       4384601                       # number of demand (read+write) MSHR hits (Count)
system.cpu.dcache.overallMshrHits::cpu.data      4384601                       # number of overall MSHR hits (Count)
system.cpu.dcache.overallMshrHits::total      4384601                       # number of overall MSHR hits (Count)
system.cpu.dcache.demandMshrMisses::cpu.data      2488420                       # number of demand (read+write) MSHR misses (Count)
system.cpu.dcache.demandMshrMisses::total      2488420                       # number of demand (read+write) MSHR misses (Count)
system.cpu.dcache.overallMshrMisses::cpu.data      2488420                       # number of overall MSHR misses (Count)
system.cpu.dcache.overallMshrMisses::total      2488420                       # number of overall MSHR misses (Count)
system.cpu.dcache.overallMshrUncacheable::cpu.data            2                       # number of overall MSHR uncacheable misses (Count)
system.cpu.dcache.overallMshrUncacheable::total            2                       # number of overall MSHR uncacheable misses (Count)
system.cpu.dcache.demandMshrMissLatency::cpu.data 133720567552                       # number of demand (read+write) MSHR miss ticks (Tick)
system.cpu.dcache.demandMshrMissLatency::total 133720567552                       # number of demand (read+write) MSHR miss ticks (Tick)
system.cpu.dcache.overallMshrMissLatency::cpu.data 133720567552                       # number of overall MSHR miss ticks (Tick)
system.cpu.dcache.overallMshrMissLatency::total 133720567552                       # number of overall MSHR miss ticks (Tick)
system.cpu.dcache.demandMshrMissRate::cpu.data     0.126407                       # mshr miss ratio for demand accesses (Ratio)
system.cpu.dcache.demandMshrMissRate::total     0.126407                       # mshr miss ratio for demand accesses (Ratio)
system.cpu.dcache.overallMshrMissRate::cpu.data     0.126407                       # mshr miss ratio for overall accesses (Ratio)
system.cpu.dcache.overallMshrMissRate::total     0.126407                       # mshr miss ratio for overall accesses (Ratio)
system.cpu.dcache.demandAvgMshrMissLatency::cpu.data 53737.137441                       # average overall mshr miss latency ((Tick/Count))
system.cpu.dcache.demandAvgMshrMissLatency::total 53737.137441                       # average overall mshr miss latency ((Tick/Count))
system.cpu.dcache.overallAvgMshrMissLatency::cpu.data 53737.137441                       # average overall mshr miss latency ((Tick/Count))
system.cpu.dcache.overallAvgMshrMissLatency::total 53737.137441                       # average overall mshr miss latency ((Tick/Count))
system.cpu.dcache.replacements                2486371                       # number of replacements (Count)
system.cpu.dcache.ReadReq.hits::cpu.data     10161096                       # number of ReadReq hits (Count)
system.cpu.dcache.ReadReq.hits::total        10161096                       # number of ReadReq hits (Count)
system.cpu.dcache.ReadReq.misses::cpu.data      5176623                       # number of ReadReq misses (Count)
system.cpu.dcache.ReadReq.misses::total       5176623                       # number of ReadReq misses (Count)
system.cpu.dcache.ReadReq.missLatency::cpu.data 259568736000                       # number of ReadReq miss ticks (Tick)
system.cpu.dcache.ReadReq.missLatency::total 259568736000                       # number of ReadReq miss ticks (Tick)
system.cpu.dcache.ReadReq.accesses::cpu.data     15337719                       # number of ReadReq accesses(hits+misses) (Count)
system.cpu.dcache.ReadReq.accesses::total     15337719                       # number of ReadReq accesses(hits+misses) (Count)
system.cpu.dcache.ReadReq.missRate::cpu.data     0.337509                       # miss rate for ReadReq accesses (Ratio)
system.cpu.dcache.ReadReq.missRate::total     0.337509                       # miss rate for ReadReq accesses (Ratio)
system.cpu.dcache.ReadReq.avgMissLatency::cpu.data 50142.484009                       # average ReadReq miss latency ((Tick/Count))
system.cpu.dcache.ReadReq.avgMissLatency::total 50142.484009                       # average ReadReq miss latency ((Tick/Count))
system.cpu.dcache.ReadReq.mshrHits::cpu.data      3136787                       # number of ReadReq MSHR hits (Count)
system.cpu.dcache.ReadReq.mshrHits::total      3136787                       # number of ReadReq MSHR hits (Count)
system.cpu.dcache.ReadReq.mshrMisses::cpu.data      2039836                       # number of ReadReq MSHR misses (Count)
system.cpu.dcache.ReadReq.mshrMisses::total      2039836                       # number of ReadReq MSHR misses (Count)
system.cpu.dcache.ReadReq.mshrMissLatency::cpu.data 107419135000                       # number of ReadReq MSHR miss ticks (Tick)
system.cpu.dcache.ReadReq.mshrMissLatency::total 107419135000                       # number of ReadReq MSHR miss ticks (Tick)
system.cpu.dcache.ReadReq.mshrMissRate::cpu.data     0.132995                       # mshr miss rate for ReadReq accesses (Ratio)
system.cpu.dcache.ReadReq.mshrMissRate::total     0.132995                       # mshr miss rate for ReadReq accesses (Ratio)
system.cpu.dcache.ReadReq.avgMshrMissLatency::cpu.data 52660.672231                       # average ReadReq mshr miss latency ((Tick/Count))
system.cpu.dcache.ReadReq.avgMshrMissLatency::total 52660.672231                       # average ReadReq mshr miss latency ((Tick/Count))
system.cpu.dcache.WriteReq.hits::cpu.data      2651589                       # number of WriteReq hits (Count)
system.cpu.dcache.WriteReq.hits::total        2651589                       # number of WriteReq hits (Count)
system.cpu.dcache.WriteReq.misses::cpu.data      1696398                       # number of WriteReq misses (Count)
system.cpu.dcache.WriteReq.misses::total      1696398                       # number of WriteReq misses (Count)
system.cpu.dcache.WriteReq.missLatency::cpu.data 108262352113                       # number of WriteReq miss ticks (Tick)
system.cpu.dcache.WriteReq.missLatency::total 108262352113                       # number of WriteReq miss ticks (Tick)
system.cpu.dcache.WriteReq.accesses::cpu.data      4347987                       # number of WriteReq accesses(hits+misses) (Count)
system.cpu.dcache.WriteReq.accesses::total      4347987                       # number of WriteReq accesses(hits+misses) (Count)
system.cpu.dcache.WriteReq.missRate::cpu.data     0.390157                       # miss rate for WriteReq accesses (Ratio)
system.cpu.dcache.WriteReq.missRate::total     0.390157                       # miss rate for WriteReq accesses (Ratio)
system.cpu.dcache.WriteReq.avgMissLatency::cpu.data 63818.957646                       # average WriteReq miss latency ((Tick/Count))
system.cpu.dcache.WriteReq.avgMissLatency::total 63818.957646                       # average WriteReq miss latency ((Tick/Count))
system.cpu.dcache.WriteReq.mshrHits::cpu.data      1247814                       # number of WriteReq MSHR hits (Count)
system.cpu.dcache.WriteReq.mshrHits::total      1247814                       # number of WriteReq MSHR hits (Count)
system.cpu.dcache.WriteReq.mshrMisses::cpu.data       448584                       # number of WriteReq MSHR misses (Count)
system.cpu.dcache.WriteReq.mshrMisses::total       448584                       # number of WriteReq MSHR misses (Count)
system.cpu.dcache.WriteReq.mshrUncacheable::cpu.data            2                       # number of WriteReq MSHR uncacheable (Count)
system.cpu.dcache.WriteReq.mshrUncacheable::total            2                       # number of WriteReq MSHR uncacheable (Count)
system.cpu.dcache.WriteReq.mshrMissLatency::cpu.data  26301432552                       # number of WriteReq MSHR miss ticks (Tick)
system.cpu.dcache.WriteReq.mshrMissLatency::total  26301432552                       # number of WriteReq MSHR miss ticks (Tick)
system.cpu.dcache.WriteReq.mshrMissRate::cpu.data     0.103171                       # mshr miss rate for WriteReq accesses (Ratio)
system.cpu.dcache.WriteReq.mshrMissRate::total     0.103171                       # mshr miss rate for WriteReq accesses (Ratio)
system.cpu.dcache.WriteReq.avgMshrMissLatency::cpu.data 58632.123642                       # average WriteReq mshr miss latency ((Tick/Count))
system.cpu.dcache.WriteReq.avgMshrMissLatency::total 58632.123642                       # average WriteReq mshr miss latency ((Tick/Count))
system.cpu.dcache.power_state.pwrStateResidencyTicks::UNDEFINED  72389090500                       # Cumulative time (in ticks) in various power states (Tick)
system.cpu.dcache.tags.tagsInUse          2047.426380                       # Average ticks per tags in use ((Tick/Count))
system.cpu.dcache.tags.totalRefs             15053284                       # Total number of references to valid blocks. (Count)
system.cpu.dcache.tags.sampledRefs            2486371                       # Sample count of references to valid blocks. (Count)
system.cpu.dcache.tags.avgRefs               6.054319                       # Average number of references to valid blocks. ((Count/Count))
system.cpu.dcache.tags.warmupTick              153500                       # The tick when the warmup percentage was hit. (Tick)
system.cpu.dcache.tags.occupancies::cpu.data  2047.426380                       # Average occupied blocks per tick, per requestor ((Count/Tick))
system.cpu.dcache.tags.avgOccs::cpu.data     0.999720                       # Average percentage of cache occupancy ((Ratio/Tick))
system.cpu.dcache.tags.avgOccs::total        0.999720                       # Average percentage of cache occupancy ((Ratio/Tick))
system.cpu.dcache.tags.occupanciesTaskId::1024         2048                       # Occupied blocks per task id (Count)
system.cpu.dcache.tags.ageTaskId_1024::0          428                       # Occupied blocks per task id, per block age (Count)
system.cpu.dcache.tags.ageTaskId_1024::1         1618                       # Occupied blocks per task id, per block age (Count)
system.cpu.dcache.tags.ageTaskId_1024::2            2                       # Occupied blocks per task id, per block age (Count)
system.cpu.dcache.tags.ratioOccsTaskId::1024            1                       # Ratio of occupied blocks and all blocks, per task id (Ratio)
system.cpu.dcache.tags.tagAccesses          159974067                       # Number of tag accesses (Count)
system.cpu.dcache.tags.dataAccesses         159974067                       # Number of data accesses (Count)
system.cpu.dcache.tags.power_state.pwrStateResidencyTicks::UNDEFINED  72389090500                       # Cumulative time (in ticks) in various power states (Tick)
system.cpu.decode.idleCycles                  3041507                       # Number of cycles decode is idle (Cycle)
system.cpu.decode.blockedCycles             128443847                       # Number of cycles decode is blocked (Cycle)
system.cpu.decode.runCycles                   9376219                       # Number of cycles decode is running (Cycle)
system.cpu.decode.unblockCycles               3314822                       # Number of cycles decode is unblocking (Cycle)
system.cpu.decode.squashCycles                 584768                       # Number of cycles decode is squashing (Cycle)
system.cpu.decode.branchResolved              7231616                       # Number of times decode resolved a branch (Count)
system.cpu.decode.branchMispred                  2019                       # Number of times decode detected a branch misprediction (Count)
system.cpu.decode.decodedInsts               87347553                       # Number of instructions handled by decode (Count)
system.cpu.decode.squashedInsts                 11119                       # Number of squashed instructions handled by decode (Count)
system.cpu.dtb_walker_cache.demandHits::cpu.mmu.dtb.walker      2360394                       # number of demand (read+write) hits (Count)
system.cpu.dtb_walker_cache.demandHits::total      2360394                       # number of demand (read+write) hits (Count)
system.cpu.dtb_walker_cache.overallHits::cpu.mmu.dtb.walker      2360394                       # number of overall hits (Count)
system.cpu.dtb_walker_cache.overallHits::total      2360394                       # number of overall hits (Count)
system.cpu.dtb_walker_cache.demandMisses::cpu.mmu.dtb.walker       390473                       # number of demand (read+write) misses (Count)
system.cpu.dtb_walker_cache.demandMisses::total       390473                       # number of demand (read+write) misses (Count)
system.cpu.dtb_walker_cache.overallMisses::cpu.mmu.dtb.walker       390473                       # number of overall misses (Count)
system.cpu.dtb_walker_cache.overallMisses::total       390473                       # number of overall misses (Count)
system.cpu.dtb_walker_cache.demandMissLatency::cpu.mmu.dtb.walker  28651979000                       # number of demand (read+write) miss ticks (Tick)
system.cpu.dtb_walker_cache.demandMissLatency::total  28651979000                       # number of demand (read+write) miss ticks (Tick)
system.cpu.dtb_walker_cache.overallMissLatency::cpu.mmu.dtb.walker  28651979000                       # number of overall miss ticks (Tick)
system.cpu.dtb_walker_cache.overallMissLatency::total  28651979000                       # number of overall miss ticks (Tick)
system.cpu.dtb_walker_cache.demandAccesses::cpu.mmu.dtb.walker      2750867                       # number of demand (read+write) accesses (Count)
system.cpu.dtb_walker_cache.demandAccesses::total      2750867                       # number of demand (read+write) accesses (Count)
system.cpu.dtb_walker_cache.overallAccesses::cpu.mmu.dtb.walker      2750867                       # number of overall (read+write) accesses (Count)
system.cpu.dtb_walker_cache.overallAccesses::total      2750867                       # number of overall (read+write) accesses (Count)
system.cpu.dtb_walker_cache.demandMissRate::cpu.mmu.dtb.walker     0.141945                       # miss rate for demand accesses (Ratio)
system.cpu.dtb_walker_cache.demandMissRate::total     0.141945                       # miss rate for demand accesses (Ratio)
system.cpu.dtb_walker_cache.overallMissRate::cpu.mmu.dtb.walker     0.141945                       # miss rate for overall accesses (Ratio)
system.cpu.dtb_walker_cache.overallMissRate::total     0.141945                       # miss rate for overall accesses (Ratio)
system.cpu.dtb_walker_cache.demandAvgMissLatency::cpu.mmu.dtb.walker 73377.618939                       # average overall miss latency in ticks ((Tick/Count))
system.cpu.dtb_walker_cache.demandAvgMissLatency::total 73377.618939                       # average overall miss latency in ticks ((Tick/Count))
system.cpu.dtb_walker_cache.overallAvgMissLatency::cpu.mmu.dtb.walker 73377.618939                       # average overall miss latency ((Tick/Count))
system.cpu.dtb_walker_cache.overallAvgMissLatency::total 73377.618939                       # average overall miss latency ((Tick/Count))
system.cpu.dtb_walker_cache.blockedCycles::no_mshrs            0                       # number of cycles access was blocked (Cycle)
system.cpu.dtb_walker_cache.blockedCycles::no_targets            0                       # number of cycles access was blocked (Cycle)
system.cpu.dtb_walker_cache.blockedCauses::no_mshrs            0                       # number of times access was blocked (Count)
system.cpu.dtb_walker_cache.blockedCauses::no_targets            0                       # number of times access was blocked (Count)
system.cpu.dtb_walker_cache.avgBlocked::no_mshrs          nan                       # average number of cycles each access was blocked ((Cycle/Count))
system.cpu.dtb_walker_cache.avgBlocked::no_targets          nan                       # average number of cycles each access was blocked ((Cycle/Count))
system.cpu.dtb_walker_cache.demandMshrMisses::cpu.mmu.dtb.walker       390473                       # number of demand (read+write) MSHR misses (Count)
system.cpu.dtb_walker_cache.demandMshrMisses::total       390473                       # number of demand (read+write) MSHR misses (Count)
system.cpu.dtb_walker_cache.overallMshrMisses::cpu.mmu.dtb.walker       390473                       # number of overall MSHR misses (Count)
system.cpu.dtb_walker_cache.overallMshrMisses::total       390473                       # number of overall MSHR misses (Count)
system.cpu.dtb_walker_cache.demandMshrMissLatency::cpu.mmu.dtb.walker  28261506000                       # number of demand (read+write) MSHR miss ticks (Tick)
system.cpu.dtb_walker_cache.demandMshrMissLatency::total  28261506000                       # number of demand (read+write) MSHR miss ticks (Tick)
system.cpu.dtb_walker_cache.overallMshrMissLatency::cpu.mmu.dtb.walker  28261506000                       # number of overall MSHR miss ticks (Tick)
system.cpu.dtb_walker_cache.overallMshrMissLatency::total  28261506000                       # number of overall MSHR miss ticks (Tick)
system.cpu.dtb_walker_cache.demandMshrMissRate::cpu.mmu.dtb.walker     0.141945                       # mshr miss ratio for demand accesses (Ratio)
system.cpu.dtb_walker_cache.demandMshrMissRate::total     0.141945                       # mshr miss ratio for demand accesses (Ratio)
system.cpu.dtb_walker_cache.overallMshrMissRate::cpu.mmu.dtb.walker     0.141945                       # mshr miss ratio for overall accesses (Ratio)
system.cpu.dtb_walker_cache.overallMshrMissRate::total     0.141945                       # mshr miss ratio for overall accesses (Ratio)
system.cpu.dtb_walker_cache.demandAvgMshrMissLatency::cpu.mmu.dtb.walker 72377.618939                       # average overall mshr miss latency ((Tick/Count))
system.cpu.dtb_walker_cache.demandAvgMshrMissLatency::total 72377.618939                       # average overall mshr miss latency ((Tick/Count))
system.cpu.dtb_walker_cache.overallAvgMshrMissLatency::cpu.mmu.dtb.walker 72377.618939                       # average overall mshr miss latency ((Tick/Count))
system.cpu.dtb_walker_cache.overallAvgMshrMissLatency::total 72377.618939                       # average overall mshr miss latency ((Tick/Count))
system.cpu.dtb_walker_cache.replacements       390457                       # number of replacements (Count)
system.cpu.dtb_walker_cache.ReadReq.hits::cpu.mmu.dtb.walker      2360394                       # number of ReadReq hits (Count)
system.cpu.dtb_walker_cache.ReadReq.hits::total      2360394                       # number of ReadReq hits (Count)
system.cpu.dtb_walker_cache.ReadReq.misses::cpu.mmu.dtb.walker       390473                       # number of ReadReq misses (Count)
system.cpu.dtb_walker_cache.ReadReq.misses::total       390473                       # number of ReadReq misses (Count)
system.cpu.dtb_walker_cache.ReadReq.missLatency::cpu.mmu.dtb.walker  28651979000                       # number of ReadReq miss ticks (Tick)
system.cpu.dtb_walker_cache.ReadReq.missLatency::total  28651979000                       # number of ReadReq miss ticks (Tick)
system.cpu.dtb_walker_cache.ReadReq.accesses::cpu.mmu.dtb.walker      2750867                       # number of ReadReq accesses(hits+misses) (Count)
system.cpu.dtb_walker_cache.ReadReq.accesses::total      2750867                       # number of ReadReq accesses(hits+misses) (Count)
system.cpu.dtb_walker_cache.ReadReq.missRate::cpu.mmu.dtb.walker     0.141945                       # miss rate for ReadReq accesses (Ratio)
system.cpu.dtb_walker_cache.ReadReq.missRate::total     0.141945                       # miss rate for ReadReq accesses (Ratio)
system.cpu.dtb_walker_cache.ReadReq.avgMissLatency::cpu.mmu.dtb.walker 73377.618939                       # average ReadReq miss latency ((Tick/Count))
system.cpu.dtb_walker_cache.ReadReq.avgMissLatency::total 73377.618939                       # average ReadReq miss latency ((Tick/Count))
system.cpu.dtb_walker_cache.ReadReq.mshrMisses::cpu.mmu.dtb.walker       390473                       # number of ReadReq MSHR misses (Count)
system.cpu.dtb_walker_cache.ReadReq.mshrMisses::total       390473                       # number of ReadReq MSHR misses (Count)
system.cpu.dtb_walker_cache.ReadReq.mshrMissLatency::cpu.mmu.dtb.walker  28261506000                       # number of ReadReq MSHR miss ticks (Tick)
system.cpu.dtb_walker_cache.ReadReq.mshrMissLatency::total  28261506000                       # number of ReadReq MSHR miss ticks (Tick)
system.cpu.dtb_walker_cache.ReadReq.mshrMissRate::cpu.mmu.dtb.walker     0.141945                       # mshr miss rate for ReadReq accesses (Ratio)
system.cpu.dtb_walker_cache.ReadReq.mshrMissRate::total     0.141945                       # mshr miss rate for ReadReq accesses (Ratio)
system.cpu.dtb_walker_cache.ReadReq.avgMshrMissLatency::cpu.mmu.dtb.walker 72377.618939                       # average ReadReq mshr miss latency ((Tick/Count))
system.cpu.dtb_walker_cache.ReadReq.avgMshrMissLatency::total 72377.618939                       # average ReadReq mshr miss latency ((Tick/Count))
system.cpu.dtb_walker_cache.power_state.pwrStateResidencyTicks::UNDEFINED  72389090500                       # Cumulative time (in ticks) in various power states (Tick)
system.cpu.dtb_walker_cache.tags.tagsInUse    15.997588                       # Average ticks per tags in use ((Tick/Count))
system.cpu.dtb_walker_cache.tags.totalRefs      2747841                       # Total number of references to valid blocks. (Count)
system.cpu.dtb_walker_cache.tags.sampledRefs       390457                       # Sample count of references to valid blocks. (Count)
system.cpu.dtb_walker_cache.tags.avgRefs     7.037500                       # Average number of references to valid blocks. ((Count/Count))
system.cpu.dtb_walker_cache.tags.warmupTick      1547500                       # The tick when the warmup percentage was hit. (Tick)
system.cpu.dtb_walker_cache.tags.occupancies::cpu.mmu.dtb.walker    15.997588                       # Average occupied blocks per tick, per requestor ((Count/Tick))
system.cpu.dtb_walker_cache.tags.avgOccs::cpu.mmu.dtb.walker     0.999849                       # Average percentage of cache occupancy ((Ratio/Tick))
system.cpu.dtb_walker_cache.tags.avgOccs::total     0.999849                       # Average percentage of cache occupancy ((Ratio/Tick))
system.cpu.dtb_walker_cache.tags.occupanciesTaskId::1024           16                       # Occupied blocks per task id (Count)
system.cpu.dtb_walker_cache.tags.ageTaskId_1024::0            1                       # Occupied blocks per task id, per block age (Count)
system.cpu.dtb_walker_cache.tags.ageTaskId_1024::1            6                       # Occupied blocks per task id, per block age (Count)
system.cpu.dtb_walker_cache.tags.ageTaskId_1024::2            9                       # Occupied blocks per task id, per block age (Count)
system.cpu.dtb_walker_cache.tags.ratioOccsTaskId::1024            1                       # Ratio of occupied blocks and all blocks, per task id (Ratio)
system.cpu.dtb_walker_cache.tags.tagAccesses      5892207                       # Number of tag accesses (Count)
system.cpu.dtb_walker_cache.tags.dataAccesses      5892207                       # Number of data accesses (Count)
system.cpu.dtb_walker_cache.tags.power_state.pwrStateResidencyTicks::UNDEFINED  72389090500                       # Cumulative time (in ticks) in various power states (Tick)
system.cpu.fetch.icacheStallCycles              49492                       # Number of cycles fetch is stalled on an Icache miss (Cycle)
system.cpu.fetch.insts                      102128407                       # Number of instructions fetch has processed (Count)
system.cpu.fetch.branches                     8484563                       # Number of branches that fetch encountered (Count)
system.cpu.fetch.predictedBranches            8484563                       # Number of branches that fetch has predicted taken (Count)
system.cpu.fetch.cycles                     144115850                       # Number of cycles fetch has run and was not squashing or blocked (Cycle)
system.cpu.fetch.squashCycles                 1173430                       # Number of cycles fetch has spent squashing (Cycle)
system.cpu.fetch.tlbCycles                       4473                       # Number of cycles fetch has spent waiting for tlb (Cycle)
system.cpu.fetch.miscStallCycles                  434                       # Number of cycles fetch has spent waiting on interrupts, or bad addresses, or out of MSHRs (Cycle)
system.cpu.fetch.pendingTrapStallCycles           969                       # Number of stall cycles due to pending traps (Cycle)
system.cpu.fetch.icacheWaitRetryStallCycles         3230                       # Number of stall cycles due to full MSHR (Cycle)
system.cpu.fetch.cacheLines                   8273003                       # Number of cache lines fetched (Count)
system.cpu.fetch.icacheSquashes                   525                       # Number of outstanding Icache misses that were squashed (Count)
system.cpu.fetch.tlbSquashes                       10                       # Number of outstanding ITLB misses that were squashed (Count)
system.cpu.fetch.nisnDist::samples          144761163                       # Number of instructions fetched each cycle (Total) (Count)
system.cpu.fetch.nisnDist::mean              0.705496                       # Number of instructions fetched each cycle (Total) (Count)
system.cpu.fetch.nisnDist::stdev             2.033857                       # Number of instructions fetched each cycle (Total) (Count)
system.cpu.fetch.nisnDist::underflows               0      0.00%      0.00% # Number of instructions fetched each cycle (Total) (Count)
system.cpu.fetch.nisnDist::0                124608945     86.08%     86.08% # Number of instructions fetched each cycle (Total) (Count)
system.cpu.fetch.nisnDist::1                  2770288      1.91%     87.99% # Number of instructions fetched each cycle (Total) (Count)
system.cpu.fetch.nisnDist::2                  3091597      2.14%     90.13% # Number of instructions fetched each cycle (Total) (Count)
system.cpu.fetch.nisnDist::3                  1354005      0.94%     91.06% # Number of instructions fetched each cycle (Total) (Count)
system.cpu.fetch.nisnDist::4                  1740879      1.20%     92.27% # Number of instructions fetched each cycle (Total) (Count)
system.cpu.fetch.nisnDist::5                  1287290      0.89%     93.16% # Number of instructions fetched each cycle (Total) (Count)
system.cpu.fetch.nisnDist::6                  1335042      0.92%     94.08% # Number of instructions fetched each cycle (Total) (Count)
system.cpu.fetch.nisnDist::7                   882238      0.61%     94.69% # Number of instructions fetched each cycle (Total) (Count)
system.cpu.fetch.nisnDist::8                  7690879      5.31%    100.00% # Number of instructions fetched each cycle (Total) (Count)
system.cpu.fetch.nisnDist::overflows                0      0.00%    100.00% # Number of instructions fetched each cycle (Total) (Count)
system.cpu.fetch.nisnDist::min_value                0                       # Number of instructions fetched each cycle (Total) (Count)
system.cpu.fetch.nisnDist::max_value                8                       # Number of instructions fetched each cycle (Total) (Count)
system.cpu.fetch.nisnDist::total            144761163                       # Number of instructions fetched each cycle (Total) (Count)
system.cpu.fetch.branchRate                  0.058604                       # Number of branch fetches per cycle (Ratio)
system.cpu.fetch.rate                        0.705413                       # Number of inst fetches per cycle ((Count/Cycle))
system.cpu.icache.demandHits::cpu.inst        8272000                       # number of demand (read+write) hits (Count)
system.cpu.icache.demandHits::total           8272000                       # number of demand (read+write) hits (Count)
system.cpu.icache.overallHits::cpu.inst       8272000                       # number of overall hits (Count)
system.cpu.icache.overallHits::total          8272000                       # number of overall hits (Count)
system.cpu.icache.demandMisses::cpu.inst          994                       # number of demand (read+write) misses (Count)
system.cpu.icache.demandMisses::total             994                       # number of demand (read+write) misses (Count)
system.cpu.icache.overallMisses::cpu.inst          994                       # number of overall misses (Count)
system.cpu.icache.overallMisses::total            994                       # number of overall misses (Count)
system.cpu.icache.demandMissLatency::cpu.inst     62183994                       # number of demand (read+write) miss ticks (Tick)
system.cpu.icache.demandMissLatency::total     62183994                       # number of demand (read+write) miss ticks (Tick)
system.cpu.icache.overallMissLatency::cpu.inst     62183994                       # number of overall miss ticks (Tick)
system.cpu.icache.overallMissLatency::total     62183994                       # number of overall miss ticks (Tick)
system.cpu.icache.demandAccesses::cpu.inst      8272994                       # number of demand (read+write) accesses (Count)
system.cpu.icache.demandAccesses::total       8272994                       # number of demand (read+write) accesses (Count)
system.cpu.icache.overallAccesses::cpu.inst      8272994                       # number of overall (read+write) accesses (Count)
system.cpu.icache.overallAccesses::total      8272994                       # number of overall (read+write) accesses (Count)
system.cpu.icache.demandMissRate::cpu.inst     0.000120                       # miss rate for demand accesses (Ratio)
system.cpu.icache.demandMissRate::total      0.000120                       # miss rate for demand accesses (Ratio)
system.cpu.icache.overallMissRate::cpu.inst     0.000120                       # miss rate for overall accesses (Ratio)
system.cpu.icache.overallMissRate::total     0.000120                       # miss rate for overall accesses (Ratio)
system.cpu.icache.demandAvgMissLatency::cpu.inst 62559.350101                       # average overall miss latency in ticks ((Tick/Count))
system.cpu.icache.demandAvgMissLatency::total 62559.350101                       # average overall miss latency in ticks ((Tick/Count))
system.cpu.icache.overallAvgMissLatency::cpu.inst 62559.350101                       # average overall miss latency ((Tick/Count))
system.cpu.icache.overallAvgMissLatency::total 62559.350101                       # average overall miss latency ((Tick/Count))
system.cpu.icache.blockedCycles::no_mshrs        13544                       # number of cycles access was blocked (Cycle)
system.cpu.icache.blockedCycles::no_targets           43                       # number of cycles access was blocked (Cycle)
system.cpu.icache.blockedCauses::no_mshrs          144                       # number of times access was blocked (Count)
system.cpu.icache.blockedCauses::no_targets            1                       # number of times access was blocked (Count)
system.cpu.icache.avgBlocked::no_mshrs      94.055556                       # average number of cycles each access was blocked ((Cycle/Count))
system.cpu.icache.avgBlocked::no_targets           43                       # average number of cycles each access was blocked ((Cycle/Count))
system.cpu.icache.demandMshrHits::cpu.inst          242                       # number of demand (read+write) MSHR hits (Count)
system.cpu.icache.demandMshrHits::total           242                       # number of demand (read+write) MSHR hits (Count)
system.cpu.icache.overallMshrHits::cpu.inst          242                       # number of overall MSHR hits (Count)
system.cpu.icache.overallMshrHits::total          242                       # number of overall MSHR hits (Count)
system.cpu.icache.demandMshrMisses::cpu.inst          752                       # number of demand (read+write) MSHR misses (Count)
system.cpu.icache.demandMshrMisses::total          752                       # number of demand (read+write) MSHR misses (Count)
[...]
system.mem_ctrls.dram.bytesPerActivate::stdev   265.728268                       # Bytes accessed per row activation (Byte)
system.mem_ctrls.dram.bytesPerActivate::0-127       366256     47.37%     47.37% # Bytes accessed per row activation (Byte)
system.mem_ctrls.dram.bytesPerActivate::128-255       215230     27.84%     75.21% # Bytes accessed per row activation (Byte)
system.mem_ctrls.dram.bytesPerActivate::256-383        64985      8.41%     83.62% # Bytes accessed per row activation (Byte)
system.mem_ctrls.dram.bytesPerActivate::384-511        30896      4.00%     87.61% # Bytes accessed per row activation (Byte)
system.mem_ctrls.dram.bytesPerActivate::512-639        18457      2.39%     90.00% # Bytes accessed per row activation (Byte)
system.mem_ctrls.dram.bytesPerActivate::640-767        11850      1.53%     91.53% # Bytes accessed per row activation (Byte)
system.mem_ctrls.dram.bytesPerActivate::768-895         8570      1.11%     92.64% # Bytes accessed per row activation (Byte)
system.mem_ctrls.dram.bytesPerActivate::896-1023         6916      0.89%     93.54% # Bytes accessed per row activation (Byte)
system.mem_ctrls.dram.bytesPerActivate::1024-1151        49967      6.46%    100.00% # Bytes accessed per row activation (Byte)
system.mem_ctrls.dram.bytesPerActivate::total       773127                       # Bytes accessed per row activation (Byte)
system.mem_ctrls.dram.bytesRead             132561344                       # Total bytes read (Byte)
system.mem_ctrls.dram.bytesWritten           36134656                       # Total bytes written (Byte)
system.mem_ctrls.dram.avgRdBW             2097.727440                       # Average DRAM read bandwidth in MiBytes/s ((Byte/Second))
system.mem_ctrls.dram.avgWrBW              571.815713                       # Average DRAM write bandwidth in MiBytes/s ((Byte/Second))
system.mem_ctrls.dram.peakBW                 19207.00                       # Theoretical peak bandwidth in MiByte/s ((Byte/Second))
system.mem_ctrls.dram.busUtil                   13.90                       # Data bus utilization in percentage (Ratio)
system.mem_ctrls.dram.busUtilRead               10.92                       # Data bus utilization in percentage for reads (Ratio)
system.mem_ctrls.dram.busUtilWrite               2.98                       # Data bus utilization in percentage for writes (Ratio)
system.mem_ctrls.dram.pageHitRate               70.67                       # Row buffer hit rate, read and write combined (Ratio)
system.mem_ctrls.dram.power_state.pwrStateResidencyTicks::UNDEFINED  63192835000                       # Cumulative time (in ticks) in various power states (Tick)
system.mem_ctrls.dram.rank0.actEnergy    1149818368.608000                       # Energy for activate commands per rank (pJ) (Joule)
system.mem_ctrls.dram.rank0.preEnergy    1528614877.372813                       # Energy for precharge commands per rank (pJ) (Joule)
system.mem_ctrls.dram.rank0.readEnergy   4040587918.080004                       # Energy for read commands per rank (pJ) (Joule)
system.mem_ctrls.dram.rank0.writeEnergy  1118445722.688001                       # Energy for write commands per rank (pJ) (Joule)
system.mem_ctrls.dram.rank0.refreshEnergy 11243724822.354124                       # Energy for refresh commands per rank (pJ) (Joule)
system.mem_ctrls.dram.rank0.actBackEnergy 51301201160.059341                       # Energy for active background per rank (pJ) (Joule)
system.mem_ctrls.dram.rank0.preBackEnergy 1834410230.284870                       # Energy for precharge background per rank (pJ) (Joule)
system.mem_ctrls.dram.rank0.actPowerDownEnergy            0                       # Energy for active power-down per rank (pJ) (Joule)
system.mem_ctrls.dram.rank0.prePowerDownEnergy            0                       # Energy for precharge power-down per rank (pJ) (Joule)
system.mem_ctrls.dram.rank0.selfRefreshEnergy            0                       # Energy for self refresh per rank (pJ) (Joule)
system.mem_ctrls.dram.rank0.totalEnergy  72216803099.448044                       # Total energy per rank (pJ) (Joule)
system.mem_ctrls.dram.rank0.averagePower  1142.800495                       # Core power per rank (mW) (Watt)
system.mem_ctrls.dram.rank0.totalIdleTime            0                       # Total Idle time Per DRAM Rank (Tick)
system.mem_ctrls.dram.rank0.pwrStateTime::IDLE   2549077332                       # Time in different power states (Tick)
system.mem_ctrls.dram.rank0.pwrStateTime::REF   2840600000                       # Time in different power states (Tick)
system.mem_ctrls.dram.rank0.pwrStateTime::SREF            0                       # Time in different power states (Tick)
system.mem_ctrls.dram.rank0.pwrStateTime::PRE_PDN            0                       # Time in different power states (Tick)
system.mem_ctrls.dram.rank0.pwrStateTime::ACT  57803157668                       # Time in different power states (Tick)
system.mem_ctrls.dram.rank0.pwrStateTime::ACT_PDN            0                       # Time in different power states (Tick)
system.mem_ctrls.dram.rank1.actEnergy    1261450977.695998                       # Energy for activate commands per rank (pJ) (Joule)
system.mem_ctrls.dram.rank1.preEnergy    1677033146.308804                       # Energy for precharge commands per rank (pJ) (Joule)
system.mem_ctrls.dram.rank1.readEnergy   4671834086.572817                       # Energy for read commands per rank (pJ) (Joule)
system.mem_ctrls.dram.rank1.writeEnergy  1003616152.895995                       # Energy for write commands per rank (pJ) (Joule)
system.mem_ctrls.dram.rank1.refreshEnergy 11243724822.354124                       # Energy for refresh commands per rank (pJ) (Joule)
system.mem_ctrls.dram.rank1.actBackEnergy 51968211505.157204                       # Energy for active background per rank (pJ) (Joule)
system.mem_ctrls.dram.rank1.preBackEnergy 1321905106.368083                       # Energy for precharge background per rank (pJ) (Joule)
system.mem_ctrls.dram.rank1.actPowerDownEnergy            0                       # Energy for active power-down per rank (pJ) (Joule)
system.mem_ctrls.dram.rank1.prePowerDownEnergy            0                       # Energy for precharge power-down per rank (pJ) (Joule)
system.mem_ctrls.dram.rank1.selfRefreshEnergy            0                       # Energy for self refresh per rank (pJ) (Joule)
system.mem_ctrls.dram.rank1.totalEnergy  73147775797.353714                       # Total energy per rank (pJ) (Joule)
system.mem_ctrls.dram.rank1.averagePower  1157.532746                       # Core power per rank (mW) (Watt)
system.mem_ctrls.dram.rank1.totalIdleTime            0                       # Total Idle time Per DRAM Rank (Tick)
system.mem_ctrls.dram.rank1.pwrStateTime::IDLE   1762363794                       # Time in different power states (Tick)
system.mem_ctrls.dram.rank1.pwrStateTime::REF   2840600000                       # Time in different power states (Tick)
system.mem_ctrls.dram.rank1.pwrStateTime::SREF            0                       # Time in different power states (Tick)
system.mem_ctrls.dram.rank1.pwrStateTime::PRE_PDN            0                       # Time in different power states (Tick)
system.mem_ctrls.dram.rank1.pwrStateTime::ACT  58589871206                       # Time in different power states (Tick)
system.mem_ctrls.dram.rank1.pwrStateTime::ACT_PDN            0                       # Time in different power states (Tick)
system.mem_ctrls.power_state.pwrStateResidencyTicks::UNDEFINED  63192835000                       # Cumulative time (in ticks) in various power states (Tick)
system.membus.transDist::ReadResp             1854431                       # Transaction distribution (Count)
system.membus.transDist::WritebackDirty        564616                       # Transaction distribution (Count)
system.membus.transDist::CleanEvict           1502305                       # Transaction distribution (Count)
system.membus.transDist::ReadExReq             218612                       # Transaction distribution (Count)
system.membus.transDist::ReadExResp            218612                       # Transaction distribution (Count)
system.membus.transDist::ReadCleanReq         1854430                       # Transaction distribution (Count)
system.membus.transDist::InvalidateReq             65                       # Transaction distribution (Count)
system.membus.pktCount_system.l2.mem_side_port::system.mem_ctrls.port      6213071                       # Packet count per connected requestor and responder (Count)
system.membus.pktCount_system.l2.mem_side_port::total      6213071                       # Packet count per connected requestor and responder (Count)
system.membus.pktCount::total                 6213071                       # Packet count per connected requestor and responder (Count)
system.membus.pktSize_system.l2.mem_side_port::system.mem_ctrls.port    168810176                       # Cumulative packet size per connected requestor and responder (Byte)
system.membus.pktSize_system.l2.mem_side_port::total    168810176                       # Cumulative packet size per connected requestor and responder (Byte)
system.membus.pktSize::total                168810176                       # Cumulative packet size per connected requestor and responder (Byte)
system.membus.snoops                                0                       # Total snoops (Count)
system.membus.snoopTraffic                          0                       # Total snoop traffic (Byte)
system.membus.snoopFanout::samples            2073107                       # Request fanout histogram (Count)
system.membus.snoopFanout::mean                     0                       # Request fanout histogram (Count)
system.membus.snoopFanout::stdev                    0                       # Request fanout histogram (Count)
system.membus.snoopFanout::underflows               0      0.00%      0.00% # Request fanout histogram (Count)
system.membus.snoopFanout::0                  2073107    100.00%    100.00% # Request fanout histogram (Count)
system.membus.snoopFanout::1                        0      0.00%    100.00% # Request fanout histogram (Count)
system.membus.snoopFanout::2                        0      0.00%    100.00% # Request fanout histogram (Count)
system.membus.snoopFanout::overflows                0      0.00%    100.00% # Request fanout histogram (Count)
system.membus.snoopFanout::min_value                0                       # Request fanout histogram (Count)
system.membus.snoopFanout::max_value                0                       # Request fanout histogram (Count)
system.membus.snoopFanout::total              2073107                       # Request fanout histogram (Count)
system.membus.badaddr_responder.power_state.pwrStateResidencyTicks::UNDEFINED  63192835000                       # Cumulative time (in ticks) in various power states (Tick)
system.membus.power_state.pwrStateResidencyTicks::UNDEFINED  63192835000                       # Cumulative time (in ticks) in various power states (Tick)
system.membus.reqLayer4.occupancy          7347961500                       # Layer occupancy (ticks) (Tick)
system.membus.reqLayer4.utilization               0.1                       # Layer utilization (Ratio)
system.membus.respLayer2.occupancy        10886891134                       # Layer occupancy (ticks) (Tick)
system.membus.respLayer2.utilization              0.2                       # Layer utilization (Ratio)
system.membus.snoop_filter.totRequests        4140028                       # Total number of requests made to the snoop filter. (Count)
system.membus.snoop_filter.hitSingleRequests      2072879                       # Number of requests hitting in the snoop filter with a single holder of the requested data. (Count)
system.membus.snoop_filter.hitMultiRequests            0                       # Number of requests hitting in the snoop filter with multiple (>1) holders of the requested data. (Count)
system.membus.snoop_filter.totSnoops                0                       # Total number of snoops made to the snoop filter. (Count)
system.membus.snoop_filter.hitSingleSnoops            0                       # Number of snoops hitting in the snoop filter with a single holder of the requested data. (Count)
system.membus.snoop_filter.hitMultiSnoops            0                       # Number of snoops hitting in the snoop filter with multiple (>1) holders of the requested data. (Count)
system.mmcs.power_state.pwrStateResidencyTicks::UNDEFINED  63192835000                       # Cumulative time (in ticks) in various power states (Tick)
system.tol2bus.transDist::ReadResp            2430268                       # Transaction distribution (Count)
system.tol2bus.transDist::WritebackDirty      1794363                       # Transaction distribution (Count)
system.tol2bus.transDist::CleanEvict          1508265                       # Transaction distribution (Count)
system.tol2bus.transDist::ReadExReq            307661                       # Transaction distribution (Count)
system.tol2bus.transDist::ReadExResp           307661                       # Transaction distribution (Count)
system.tol2bus.transDist::ReadCleanReq             42                       # Transaction distribution (Count)
system.tol2bus.transDist::ReadSharedReq       2430226                       # Transaction distribution (Count)
system.tol2bus.transDist::InvalidateReq           127                       # Transaction distribution (Count)
system.tol2bus.transDist::InvalidateResp          127                       # Transaction distribution (Count)
system.tol2bus.pktCount_system.cpu.icache.mem_side_port::system.l2.cpu_side_port           84                       # Packet count per connected requestor and responder (Count)
system.tol2bus.pktCount_system.cpu.dcache.mem_side_port::system.l2.cpu_side_port      7544931                       # Packet count per connected requestor and responder (Count)
system.tol2bus.pktCount_system.cpu.itb_walker_cache.mem_side_port::system.l2.cpu_side_port           31                       # Packet count per connected requestor and responder (Count)
system.tol2bus.pktCount_system.cpu.dtb_walker_cache.mem_side_port::system.l2.cpu_side_port       669078                       # Packet count per connected requestor and responder (Count)
system.tol2bus.pktCount::total                8214124                       # Packet count per connected requestor and responder (Count)
system.tol2bus.pktSize_system.cpu.icache.mem_side_port::system.l2.cpu_side_port         2688                       # Cumulative packet size per connected requestor and responder (Byte)
system.tol2bus.pktSize_system.cpu.dcache.mem_side_port::system.l2.cpu_side_port    239654208                       # Cumulative packet size per connected requestor and responder (Byte)
system.tol2bus.pktSize_system.cpu.itb_walker_cache.mem_side_port::system.l2.cpu_side_port          704                       # Cumulative packet size per connected requestor and responder (Byte)
system.tol2bus.pktSize_system.cpu.dtb_walker_cache.mem_side_port::system.l2.cpu_side_port     14273664                       # Cumulative packet size per connected requestor and responder (Byte)
system.tol2bus.pktSize::total               253931264                       # Cumulative packet size per connected requestor and responder (Byte)
system.tol2bus.snoops                          564616                       # Total snoops (Count)
system.tol2bus.snoopTraffic                  36135424                       # Total snoop traffic (Byte)
system.tol2bus.snoopFanout::samples           3302696                       # Request fanout histogram (Count)
system.tol2bus.snoopFanout::mean             0.001804                       # Request fanout histogram (Count)
system.tol2bus.snoopFanout::stdev            0.042435                       # Request fanout histogram (Count)
system.tol2bus.snoopFanout::underflows              0      0.00%      0.00% # Request fanout histogram (Count)
system.tol2bus.snoopFanout::0                 3296738     99.82%     99.82% # Request fanout histogram (Count)
system.tol2bus.snoopFanout::1                    5958      0.18%    100.00% # Request fanout histogram (Count)
system.tol2bus.snoopFanout::2                       0      0.00%    100.00% # Request fanout histogram (Count)
system.tol2bus.snoopFanout::3                       0      0.00%    100.00% # Request fanout histogram (Count)
system.tol2bus.snoopFanout::4                       0      0.00%    100.00% # Request fanout histogram (Count)
system.tol2bus.snoopFanout::overflows               0      0.00%    100.00% # Request fanout histogram (Count)
system.tol2bus.snoopFanout::min_value               0                       # Request fanout histogram (Count)
system.tol2bus.snoopFanout::max_value               1                       # Request fanout histogram (Count)
system.tol2bus.snoopFanout::total             3302696                       # Request fanout histogram (Count)
system.tol2bus.power_state.pwrStateResidencyTicks::UNDEFINED  63192835000                       # Cumulative time (in ticks) in various power states (Tick)
system.tol2bus.reqLayer0.occupancy         3353019894                       # Layer occupancy (ticks) (Tick)
system.tol2bus.reqLayer0.utilization              0.1                       # Layer utilization (Ratio)
system.tol2bus.respLayer0.occupancy             42000                       # Layer occupancy (ticks) (Tick)
system.tol2bus.respLayer0.utilization             0.0                       # Layer utilization (Ratio)
system.tol2bus.respLayer1.occupancy        2514913500                       # Layer occupancy (ticks) (Tick)
system.tol2bus.respLayer1.utilization             0.0                       # Layer utilization (Ratio)
system.tol2bus.respLayer2.occupancy             11000                       # Layer occupancy (ticks) (Tick)
system.tol2bus.respLayer2.utilization             0.0                       # Layer utilization (Ratio)
system.tol2bus.respLayer3.occupancy         223177696                       # Layer occupancy (ticks) (Tick)
system.tol2bus.respLayer3.utilization             0.0                       # Layer utilization (Ratio)
system.tol2bus.snoop_filter.totRequests       5476187                       # Total number of requests made to the snoop filter. (Count)
system.tol2bus.snoop_filter.hitSingleRequests      2738106                       # Number of requests hitting in the snoop filter with a single holder of the requested data. (Count)
system.tol2bus.snoop_filter.hitMultiRequests         5959                       # Number of requests hitting in the snoop filter with multiple (>1) holders of the requested data. (Count)
system.tol2bus.snoop_filter.totSnoops               0                       # Total number of snoops made to the snoop filter. (Count)
system.tol2bus.snoop_filter.hitSingleSnoops            0                       # Number of snoops hitting in the snoop filter with a single holder of the requested data. (Count)
system.tol2bus.snoop_filter.hitMultiSnoops            0                       # Number of snoops hitting in the snoop filter with multiple (>1) holders of the requested data. (Count)
system.uartlite.power_state.pwrStateResidencyTicks::UNDEFINED  63192835000                       # Cumulative time (in ticks) in various power states (Tick)
system.voltage_domain.voltage                       1                       # Voltage in Volts (Volt)
system.workload.inst.arm                            0                       # number of arm instructions executed (Count)
system.workload.inst.quiesce                        0                       # number of quiesce instructions executed (Count)

---------- End Simulation Statistics   ----------
