
---------- Begin Simulation Statistics ----------
simSeconds                                   0.016184                       # Number of seconds simulated (Second)
simTicks                                  16183619500                       # Number of ticks simulated (Tick)
finalTick                                 16183619500                       # Number of ticks from beginning of simulation (restored from checkpoints and never reset) (Tick)
simFreq                                  1000000000000                       # The number of ticks per simulated second ((Tick/Second))
hostSeconds                                   1121.76                       # Real time elapsed on the host (Second)
hostTickRate                                 14426987                       # The number of ticks simulated per host second (ticks/s) ((Tick/Second))
hostMemory                                   23380532                       # Number of bytes of host memory used (Byte)
simInsts                                     50000002                       # Number of instructions simulated (Count)
simOps                                       50000002                       # Number of ops (including micro ops) simulated (Count)
hostInstRate                                    44573                       # Simulator instruction rate (inst/s) ((Count/Second))
hostOpRate                                      44573                       # Simulator op (including micro ops) rate (op/s) ((Count/Second))
system.bridge.power_state.pwrStateResidencyTicks::UNDEFINED  16183619500                       # Cumulative time (in ticks) in various power states (Tick)
system.clk_domain.clock                          1000                       # Clock period in ticks (Tick)
system.cpu.numCycles                         32367248                       # Number of cpu cycles simulated (Cycle)
system.cpu.numWorkItemsStarted                      0                       # Number of work items this cpu started (Count)
system.cpu.numWorkItemsCompleted                    0                       # Number of work items this cpu completed (Count)
system.cpu.instsAdded                        76673897                       # Number of instructions added to the IQ (excludes non-spec) (Count)
system.cpu.nonSpecInstsAdded                       34                       # Number of non-speculative instructions added to the IQ (Count)
system.cpu.instsIssued                       68152446                       # Number of instructions issued (Count)
system.cpu.squashedInstsIssued                 680958                       # Number of squashed instructions issued (Count)
system.cpu.squashedInstsExamined             26673886                       # Number of squashed instructions iterated over during squash; mainly for profiling (Count)
system.cpu.squashedOperandsExamined          16145150                       # Number of squashed operands that are examined and possibly removed from graph (Count)
system.cpu.squashedNonSpecRemoved                   1                       # Number of squashed non-spec instructions that were removed (Count)
system.cpu.numIssuedDist::samples            32283936                       # Number of insts issued each cycle (Count)
system.cpu.numIssuedDist::mean               2.111033                       # Number of insts issued each cycle (Count)
system.cpu.numIssuedDist::stdev              2.628734                       # Number of insts issued each cycle (Count)
system.cpu.numIssuedDist::underflows                0      0.00%      0.00% # Number of insts issued each cycle (Count)
system.cpu.numIssuedDist::0                  16458741     50.98%     50.98% # Number of insts issued each cycle (Count)
system.cpu.numIssuedDist::1                   1999405      6.19%     57.17% # Number of insts issued each cycle (Count)
system.cpu.numIssuedDist::2                   1866296      5.78%     62.96% # Number of insts issued each cycle (Count)
system.cpu.numIssuedDist::3                   2134163      6.61%     69.57% # Number of insts issued each cycle (Count)
system.cpu.numIssuedDist::4                   2507674      7.77%     77.33% # Number of insts issued each cycle (Count)
system.cpu.numIssuedDist::5                   2322091      7.19%     84.53% # Number of insts issued each cycle (Count)
system.cpu.numIssuedDist::6                   2107118      6.53%     91.05% # Number of insts issued each cycle (Count)
system.cpu.numIssuedDist::7                   1373483      4.25%     95.31% # Number of insts issued each cycle (Count)
system.cpu.numIssuedDist::8                   1514965      4.69%    100.00% # Number of insts issued each cycle (Count)
system.cpu.numIssuedDist::overflows                 0      0.00%    100.00% # Number of insts issued each cycle (Count)
system.cpu.numIssuedDist::min_value                 0                       # Number of insts issued each cycle (Count)
system.cpu.numIssuedDist::max_value                 8                       # Number of insts issued each cycle (Count)
system.cpu.numIssuedDist::total              32283936                       # Number of insts issued each cycle (Count)
system.cpu.statFuBusy::No_OpClass                   0      0.00%      0.00% # attempts to use FU when none available (Count)
system.cpu.statFuBusy::IntAlu                  428601     15.46%     15.46% # attempts to use FU when none available (Count)
system.cpu.statFuBusy::IntMult                 306518     11.06%     26.52% # attempts to use FU when none available (Count)
system.cpu.statFuBusy::IntDiv                   31653      1.14%     27.67% # attempts to use FU when none available (Count)
system.cpu.statFuBusy::FloatAdd                    98      0.00%     27.67% # attempts to use FU when none available (Count)
system.cpu.statFuBusy::FloatCmp                   101      0.00%     27.67% # attempts to use FU when none available (Count)
system.cpu.statFuBusy::FloatCvt                   208      0.01%     27.68% # attempts to use FU when none available (Count)
system.cpu.statFuBusy::FloatMult                  369      0.01%     27.69% # attempts to use FU when none available (Count)
system.cpu.statFuBusy::FloatMultAcc               150      0.01%     27.70% # attempts to use FU when none available (Count)
system.cpu.statFuBusy::FloatDiv                   127      0.00%     27.70% # attempts to use FU when none available (Count)
system.cpu.statFuBusy::FloatMisc                 2059      0.07%     27.78% # attempts to use FU when none available (Count)
system.cpu.statFuBusy::FloatSqrt                    0      0.00%     27.78% # attempts to use FU when none available (Count)
system.cpu.statFuBusy::SimdAdd                      0      0.00%     27.78% # attempts to use FU when none available (Count)
system.cpu.statFuBusy::SimdAddAcc                   0      0.00%     27.78% # attempts to use FU when none available (Count)
system.cpu.statFuBusy::SimdAlu                      0      0.00%     27.78% # attempts to use FU when none available (Count)
system.cpu.statFuBusy::SimdCmp                      0      0.00%     27.78% # attempts to use FU when none available (Count)
system.cpu.statFuBusy::SimdCvt                      0      0.00%     27.78% # attempts to use FU when none available (Count)
system.cpu.statFuBusy::SimdMisc                     0      0.00%     27.78% # attempts to use FU when none available (Count)
system.cpu.statFuBusy::SimdMult                     0      0.00%     27.78% # attempts to use FU when none available (Count)
system.cpu.statFuBusy::SimdMultAcc                  0      0.00%     27.78% # attempts to use FU when none available (Count)
system.cpu.statFuBusy::SimdShift                    0      0.00%     27.78% # attempts to use FU when none available (Count)
system.cpu.statFuBusy::SimdShiftAcc                 0      0.00%     27.78% # attempts to use FU when none available (Count)
system.cpu.statFuBusy::SimdDiv                      0      0.00%     27.78% # attempts to use FU when none available (Count)
system.cpu.statFuBusy::SimdSqrt                     0      0.00%     27.78% # attempts to use FU when none available (Count)
system.cpu.statFuBusy::SimdFloatAdd                 0      0.00%     27.78% # attempts to use FU when none available (Count)
system.cpu.statFuBusy::SimdFloatAlu                 0      0.00%     27.78% # attempts to use FU when none available (Count)
system.cpu.statFuBusy::SimdFloatCmp                 0      0.00%     27.78% # attempts to use FU when none available (Count)
system.cpu.statFuBusy::SimdFloatCvt                 0      0.00%     27.78% # attempts to use FU when none available (Count)
system.cpu.statFuBusy::SimdFloatDiv                 0      0.00%     27.78% # attempts to use FU when none available (Count)
system.cpu.statFuBusy::SimdFloatMisc                0      0.00%     27.78% # attempts to use FU when none available (Count)
system.cpu.statFuBusy::SimdFloatMult                0      0.00%     27.78% # attempts to use FU when none available (Count)
system.cpu.statFuBusy::SimdFloatMultAcc             0      0.00%     27.78% # attempts to use FU when none available (Count)
system.cpu.statFuBusy::SimdFloatSqrt                0      0.00%     27.78% # attempts to use FU when none available (Count)
system.cpu.statFuBusy::SimdReduceAdd                0      0.00%     27.78% # attempts to use FU when none available (Count)
system.cpu.statFuBusy::SimdReduceAlu                0      0.00%     27.78% # attempts to use FU when none available (Count)
system.cpu.statFuBusy::SimdReduceCmp                0      0.00%     27.78% # attempts to use FU when none available (Count)
system.cpu.statFuBusy::SimdFloatReduceAdd            0      0.00%     27.78% # attempts to use FU when none available (Count)
system.cpu.statFuBusy::SimdFloatReduceCmp            0      0.00%     27.78% # attempts to use FU when none available (Count)
system.cpu.statFuBusy::SimdAes                      0      0.00%     27.78% # attempts to use FU when none available (Count)
system.cpu.statFuBusy::SimdAesMix                   0      0.00%     27.78% # attempts to use FU when none available (Count)
system.cpu.statFuBusy::SimdSha1Hash                 0      0.00%     27.78% # attempts to use FU when none available (Count)
system.cpu.statFuBusy::SimdSha1Hash2                0      0.00%     27.78% # attempts to use FU when none available (Count)
system.cpu.statFuBusy::SimdSha256Hash               0      0.00%     27.78% # attempts to use FU when none available (Count)
system.cpu.statFuBusy::SimdSha256Hash2              0      0.00%     27.78% # attempts to use FU when none available (Count)
system.cpu.statFuBusy::SimdShaSigma2                0      0.00%     27.78% # attempts to use FU when none available (Count)
system.cpu.statFuBusy::SimdShaSigma3                0      0.00%     27.78% # attempts to use FU when none available (Count)
system.cpu.statFuBusy::SimdPredAlu                  0      0.00%     27.78% # attempts to use FU when none available (Count)
system.cpu.statFuBusy::MemRead                1085055     39.15%     66.93% # attempts to use FU when none available (Count)
system.cpu.statFuBusy::MemWrite                903228     32.59%     99.52% # attempts to use FU when none available (Count)
system.cpu.statFuBusy::FloatMemRead              8056      0.29%     99.81% # attempts to use FU when none available (Count)
system.cpu.statFuBusy::FloatMemWrite             5232      0.19%    100.00% # attempts to use FU when none available (Count)
system.cpu.statFuBusy::IprAccess                    0      0.00%    100.00% # attempts to use FU when none available (Count)
system.cpu.statFuBusy::InstPrefetch                 0      0.00%    100.00% # attempts to use FU when none available (Count)
system.cpu.statIssuedInstType_0::No_OpClass           43      0.00%      0.00% # Number of instructions issued per FU type, per thread (Count)
system.cpu.statIssuedInstType_0::IntAlu      42134875     61.82%     61.82% # Number of instructions issued per FU type, per thread (Count)
system.cpu.statIssuedInstType_0::IntMult      1559717      2.29%     64.11% # Number of instructions issued per FU type, per thread (Count)
system.cpu.statIssuedInstType_0::IntDiv         74522      0.11%     64.22% # Number of instructions issued per FU type, per thread (Count)
system.cpu.statIssuedInstType_0::FloatAdd        24073      0.04%     64.26% # Number of instructions issued per FU type, per thread (Count)
system.cpu.statIssuedInstType_0::FloatCmp        58085      0.09%     64.34% # Number of instructions issued per FU type, per thread (Count)
system.cpu.statIssuedInstType_0::FloatCvt        70744      0.10%     64.45% # Number of instructions issued per FU type, per thread (Count)
system.cpu.statIssuedInstType_0::FloatMult        23854      0.04%     64.48% # Number of instructions issued per FU type, per thread (Count)
system.cpu.statIssuedInstType_0::FloatMultAcc         6272      0.01%     64.49% # Number of instructions issued per FU type, per thread (Count)
system.cpu.statIssuedInstType_0::FloatDiv         3914      0.01%     64.50% # Number of instructions issued per FU type, per thread (Count)
system.cpu.statIssuedInstType_0::FloatMisc        14696      0.02%     64.52% # Number of instructions issued per FU type, per thread (Count)
system.cpu.statIssuedInstType_0::FloatSqrt            0      0.00%     64.52% # Number of instructions issued per FU type, per thread (Count)
system.cpu.statIssuedInstType_0::SimdAdd            0      0.00%     64.52% # Number of instructions issued per FU type, per thread (Count)
system.cpu.statIssuedInstType_0::SimdAddAcc            0      0.00%     64.52% # Number of instructions issued per FU type, per thread (Count)
system.cpu.statIssuedInstType_0::SimdAlu            0      0.00%     64.52% # Number of instructions issued per FU type, per thread (Count)
system.cpu.statIssuedInstType_0::SimdCmp            0      0.00%     64.52% # Number of instructions issued per FU type, per thread (Count)
system.cpu.statIssuedInstType_0::SimdCvt            0      0.00%     64.52% # Number of instructions issued per FU type, per thread (Count)
system.cpu.statIssuedInstType_0::SimdMisc            0      0.00%     64.52% # Number of instructions issued per FU type, per thread (Count)
system.cpu.statIssuedInstType_0::SimdMult            0      0.00%     64.52% # Number of instructions issued per FU type, per thread (Count)
system.cpu.statIssuedInstType_0::SimdMultAcc            0      0.00%     64.52% # Number of instructions issued per FU type, per thread (Count)
system.cpu.statIssuedInstType_0::SimdShift            0      0.00%     64.52% # Number of instructions issued per FU type, per thread (Count)
system.cpu.statIssuedInstType_0::SimdShiftAcc            0      0.00%     64.52% # Number of instructions issued per FU type, per thread (Count)
system.cpu.statIssuedInstType_0::SimdDiv            0      0.00%     64.52% # Number of instructions issued per FU type, per thread (Count)
system.cpu.statIssuedInstType_0::SimdSqrt            0      0.00%     64.52% # Number of instructions issued per FU type, per thread (Count)
system.cpu.statIssuedInstType_0::SimdFloatAdd            0      0.00%     64.52% # Number of instructions issued per FU type, per thread (Count)
system.cpu.statIssuedInstType_0::SimdFloatAlu            0      0.00%     64.52% # Number of instructions issued per FU type, per thread (Count)
system.cpu.statIssuedInstType_0::SimdFloatCmp            0      0.00%     64.52% # Number of instructions issued per FU type, per thread (Count)
system.cpu.statIssuedInstType_0::SimdFloatCvt            0      0.00%     64.52% # Number of instructions issued per FU type, per thread (Count)
system.cpu.statIssuedInstType_0::SimdFloatDiv            0      0.00%     64.52% # Number of instructions issued per FU type, per thread (Count)
system.cpu.statIssuedInstType_0::SimdFloatMisc            0      0.00%     64.52% # Number of instructions issued per FU type, per thread (Count)
system.cpu.statIssuedInstType_0::SimdFloatMult            0      0.00%     64.52% # Number of instructions issued per FU type, per thread (Count)
system.cpu.statIssuedInstType_0::SimdFloatMultAcc            0      0.00%     64.52% # Number of instructions issued per FU type, per thread (Count)
system.cpu.statIssuedInstType_0::SimdFloatSqrt            0      0.00%     64.52% # Number of instructions issued per FU type, per thread (Count)
system.cpu.statIssuedInstType_0::SimdReduceAdd            0      0.00%     64.52% # Number of instructions issued per FU type, per thread (Count)
system.cpu.statIssuedInstType_0::SimdReduceAlu            0      0.00%     64.52% # Number of instructions issued per FU type, per thread (Count)
system.cpu.statIssuedInstType_0::SimdReduceCmp            0      0.00%     64.52% # Number of instructions issued per FU type, per thread (Count)
system.cpu.statIssuedInstType_0::SimdFloatReduceAdd            0      0.00%     64.52% # Number of instructions issued per FU type, per thread (Count)
system.cpu.statIssuedInstType_0::SimdFloatReduceCmp            0      0.00%     64.52% # Number of instructions issued per FU type, per thread (Count)
system.cpu.statIssuedInstType_0::SimdAes            0      0.00%     64.52% # Number of instructions issued per FU type, per thread (Count)
system.cpu.statIssuedInstType_0::SimdAesMix            0      0.00%     64.52% # Number of instructions issued per FU type, per thread (Count)
system.cpu.statIssuedInstType_0::SimdSha1Hash            0      0.00%     64.52% # Number of instructions issued per FU type, per thread (Count)
system.cpu.statIssuedInstType_0::SimdSha1Hash2            0      0.00%     64.52% # Number of instructions issued per FU type, per thread (Count)
system.cpu.statIssuedInstType_0::SimdSha256Hash            0      0.00%     64.52% # Number of instructions issued per FU type, per thread (Count)
system.cpu.statIssuedInstType_0::SimdSha256Hash2            0      0.00%     64.52% # Number of instructions issued per FU type, per thread (Count)
system.cpu.statIssuedInstType_0::SimdShaSigma2            0      0.00%     64.52% # Number of instructions issued per FU type, per thread (Count)
system.cpu.statIssuedInstType_0::SimdShaSigma3            0      0.00%     64.52% # Number of instructions issued per FU type, per thread (Count)
system.cpu.statIssuedInstType_0::SimdPredAlu            0      0.00%     64.52% # Number of instructions issued per FU type, per thread (Count)
system.cpu.statIssuedInstType_0::MemRead     16670798     24.46%     88.98% # Number of instructions issued per FU type, per thread (Count)
system.cpu.statIssuedInstType_0::MemWrite      7320912     10.74%     99.72% # Number of instructions issued per FU type, per thread (Count)
system.cpu.statIssuedInstType_0::FloatMemRead       144386      0.21%     99.93% # Number of instructions issued per FU type, per thread (Count)
system.cpu.statIssuedInstType_0::FloatMemWrite        45555      0.07%    100.00% # Number of instructions issued per FU type, per thread (Count)
system.cpu.statIssuedInstType_0::IprAccess            0      0.00%    100.00% # Number of instructions issued per FU type, per thread (Count)
system.cpu.statIssuedInstType_0::InstPrefetch            0      0.00%    100.00% # Number of instructions issued per FU type, per thread (Count)
system.cpu.statIssuedInstType_0::total       68152446                       # Number of instructions issued per FU type, per thread (Count)
system.cpu.issueRate                         2.105599                       # Inst issue rate ((Count/Cycle))
system.cpu.fuBusy                             2771455                       # FU busy when requested (Count)
system.cpu.fuBusyRate                        0.040666                       # FU busy rate (busy events/executed inst) ((Count/Count))
system.cpu.intInstQueueReads                171238640                       # Number of integer instruction queue reads (Count)
system.cpu.intInstQueueWrites               102645715                       # Number of integer instruction queue writes (Count)
system.cpu.intInstQueueWakeupAccesses        63840267                       # Number of integer instruction queue wakeup accesses (Count)
system.cpu.fpInstQueueReads                    802597                       # Number of floating instruction queue reads (Count)
system.cpu.fpInstQueueWrites                   712764                       # Number of floating instruction queue writes (Count)
system.cpu.fpInstQueueWakeupAccesses           360248                       # Number of floating instruction queue wakeup accesses (Count)
system.cpu.vecInstQueueReads                        0                       # Number of vector instruction queue reads (Count)
system.cpu.vecInstQueueWrites                       0                       # Number of vector instruction queue writes (Count)
system.cpu.vecInstQueueWakeupAccesses               0                       # Number of vector instruction queue wakeup accesses (Count)
system.cpu.intAluAccesses                    70515879                       # Number of integer alu accesses (Count)
system.cpu.fpAluAccesses                       407979                       # Number of floating point alu accesses (Count)
system.cpu.vecAluAccesses                           0                       # Number of vector alu accesses (Count)
system.cpu.numInsts                          65425153                       # Number of executed instructions (Count)
system.cpu.numLoadInsts                      15834928                       # Number of load instructions executed (Count)
system.cpu.numSquashedInsts                   2616671                       # Number of squashed instructions skipped in execute (Count)
system.cpu.numSwp                                   0                       # Number of swp insts executed (Count)
system.cpu.numNop                                   0                       # Number of nop insts executed (Count)
system.cpu.numRefs                           22841440                       # Number of memory reference insts executed (Count)
system.cpu.numBranches                       10238930                       # Number of branches executed (Count)
system.cpu.numStoreInsts                      7006512                       # Number of stores executed (Count)
system.cpu.numRate                           2.021338                       # Inst execution rate ((Count/Cycle))
system.cpu.timesIdled                             989                       # Number of times that the entire CPU went into an idle state and unscheduled itself (Count)
system.cpu.idleCycles                           83312                       # Total number of cycles that the CPU has spent unscheduled due to idling (Cycle)
system.cpu.committedInsts                    50000002                       # Number of Instructions Simulated (Count)
system.cpu.committedOps                      50000002                       # Number of Ops (including micro ops) Simulated (Count)
system.cpu.cpi                               0.647345                       # CPI: Cycles Per Instruction ((Cycle/Count))
system.cpu.totalCpi                          0.647345                       # CPI: Total CPI of All Threads ((Cycle/Count))
system.cpu.ipc                               1.544771                       # IPC: Instructions Per Cycle ((Count/Cycle))
system.cpu.totalIpc                          1.544771                       # IPC: Total IPC of All Threads ((Count/Cycle))
system.cpu.intRegfileReads                   78609736                       # Number of integer regfile reads (Count)
system.cpu.intRegfileWrites                  48070098                       # Number of integer regfile writes (Count)
system.cpu.fpRegfileReads                      330608                       # Number of floating regfile reads (Count)
system.cpu.fpRegfileWrites                     257006                       # Number of floating regfile writes (Count)
system.cpu.miscRegfileReads                 504895230                       # number of misc regfile reads (Count)
system.cpu.miscRegfileWrites                   235144                       # number of misc regfile writes (Count)
system.cpu.lastCommitTick                 16183619500                       # The last tick to commit an instruction (Count)
system.cpu.MemDepUnit__0.insertedLoads       18662843                       # Number of loads inserted to the mem dependence unit. (Count)
system.cpu.MemDepUnit__0.insertedStores       8518858                       # Number of stores inserted to the mem dependence unit. (Count)
system.cpu.MemDepUnit__0.conflictingLoads       997433                       # Number of conflicting loads. (Count)
system.cpu.MemDepUnit__0.conflictingStores      1065283                       # Number of conflicting stores. (Count)
system.cpu.MemDepUnit__1.insertedLoads              0                       # Number of loads inserted to the mem dependence unit. (Count)
system.cpu.MemDepUnit__1.insertedStores             0                       # Number of stores inserted to the mem dependence unit. (Count)
system.cpu.MemDepUnit__1.conflictingLoads            0                       # Number of conflicting loads. (Count)
system.cpu.MemDepUnit__1.conflictingStores            0                       # Number of conflicting stores. (Count)
system.cpu.MemDepUnit__2.insertedLoads              0                       # Number of loads inserted to the mem dependence unit. (Count)
system.cpu.MemDepUnit__2.insertedStores             0                       # Number of stores inserted to the mem dependence unit. (Count)
system.cpu.MemDepUnit__2.conflictingLoads            0                       # Number of conflicting loads. (Count)
system.cpu.MemDepUnit__2.conflictingStores            0                       # Number of conflicting stores. (Count)
system.cpu.MemDepUnit__3.insertedLoads              0                       # Number of loads inserted to the mem dependence unit. (Count)
system.cpu.MemDepUnit__3.insertedStores             0                       # Number of stores inserted to the mem dependence unit. (Count)
system.cpu.MemDepUnit__3.conflictingLoads            0                       # Number of conflicting loads. (Count)
system.cpu.MemDepUnit__3.conflictingStores            0                       # Number of conflicting stores. (Count)
system.cpu.branchPred.lookups                       0                       # Number of BP lookups (Count)
system.cpu.branchPred.condPredicted                 0                       # Number of conditional branches predicted (Count)
system.cpu.branchPred.condIncorrect            839980                       # Number of conditional branches incorrect (Count)
system.cpu.branchPred.BTBLookups                    0                       # Number of BTB lookups (Count)
system.cpu.branchPred.BTBHits                       0                       # Number of BTB hits (Count)
system.cpu.branchPred.BTBHitRatio                 nan                       # BTB Hit Ratio (Ratio)
system.cpu.branchPred.RASUsed                       0                       # Number of times the RAS was used to get a target. (Count)
system.cpu.branchPred.RASIncorrect             108620                       # Number of incorrect RAS predictions. (Count)
system.cpu.branchPred.indirectLookups               0                       # Number of indirect predictor lookups. (Count)
system.cpu.branchPred.indirectHits                  0                       # Number of indirect target hits. (Count)
system.cpu.branchPred.indirectMisses                0                       # Number of indirect misses. (Count)
system.cpu.branchPred.indirectMispredicted       112411                       # Number of mispredicted indirect branches. (Count)
system.cpu.branchPred.stream_tage.coldMisses            0                       # ittage the provider component lookup hit (Count)
system.cpu.branchPred.stream_tage.capacityMisses            0                       # ittage the alternate prediction lookup hit (Count)
system.cpu.branchPred.stream_tage.compulsoryMisses            0                       # ittage the provider component pred hit (Count)
system.cpu.branchPred.stream_tage.providerTableDist::samples     29053509                       # the distribution of provider component (Count)
system.cpu.branchPred.stream_tage.providerTableDist::mean     1.679007                       # the distribution of provider component (Count)
system.cpu.branchPred.stream_tage.providerTableDist::stdev     2.269233                       # the distribution of provider component (Count)
system.cpu.branchPred.stream_tage.providerTableDist::underflows            0      0.00%      0.00% # the distribution of provider component (Count)
system.cpu.branchPred.stream_tage.providerTableDist::0     12917209     44.46%     44.46% # the distribution of provider component (Count)
system.cpu.branchPred.stream_tage.providerTableDist::1      4704414     16.19%     60.65% # the distribution of provider component (Count)
system.cpu.branchPred.stream_tage.providerTableDist::2      3928060     13.52%     74.17% # the distribution of provider component (Count)
system.cpu.branchPred.stream_tage.providerTableDist::3      3008456     10.35%     84.53% # the distribution of provider component (Count)
system.cpu.branchPred.stream_tage.providerTableDist::4      1431682      4.93%     89.46% # the distribution of provider component (Count)
system.cpu.branchPred.stream_tage.providerTableDist::5       831769      2.86%     92.32% # the distribution of provider component (Count)
system.cpu.branchPred.stream_tage.providerTableDist::6       608599      2.09%     94.41% # the distribution of provider component (Count)
system.cpu.branchPred.stream_tage.providerTableDist::7       542711      1.87%     96.28% # the distribution of provider component (Count)
system.cpu.branchPred.stream_tage.providerTableDist::8       456667      1.57%     97.85% # the distribution of provider component (Count)
system.cpu.branchPred.stream_tage.providerTableDist::9       280473      0.97%     98.82% # the distribution of provider component (Count)
system.cpu.branchPred.stream_tage.providerTableDist::10       208879      0.72%     99.54% # the distribution of provider component (Count)
system.cpu.branchPred.stream_tage.providerTableDist::11        70610      0.24%     99.78% # the distribution of provider component (Count)
system.cpu.branchPred.stream_tage.providerTableDist::12        27042      0.09%     99.87% # the distribution of provider component (Count)
system.cpu.branchPred.stream_tage.providerTableDist::13        25723      0.09%     99.96% # the distribution of provider component (Count)
system.cpu.branchPred.stream_tage.providerTableDist::14        11215      0.04%    100.00% # the distribution of provider component (Count)
system.cpu.branchPred.stream_tage.providerTableDist::15            0      0.00%    100.00% # the distribution of provider component (Count)
system.cpu.branchPred.stream_tage.providerTableDist::16            0      0.00%    100.00% # the distribution of provider component (Count)
system.cpu.branchPred.stream_tage.providerTableDist::17            0      0.00%    100.00% # the distribution of provider component (Count)
system.cpu.branchPred.stream_tage.providerTableDist::18            0      0.00%    100.00% # the distribution of provider component (Count)
system.cpu.branchPred.stream_tage.providerTableDist::19            0      0.00%    100.00% # the distribution of provider component (Count)
system.cpu.branchPred.stream_tage.providerTableDist::20            0      0.00%    100.00% # the distribution of provider component (Count)
system.cpu.branchPred.stream_tage.providerTableDist::21            0      0.00%    100.00% # the distribution of provider component (Count)
system.cpu.branchPred.stream_tage.providerTableDist::overflows            0      0.00%    100.00% # the distribution of provider component (Count)
system.cpu.branchPred.stream_tage.providerTableDist::min_value            0                       # the distribution of provider component (Count)
system.cpu.branchPred.stream_tage.providerTableDist::max_value           14                       # the distribution of provider component (Count)
system.cpu.branchPred.stream_tage.providerTableDist::total     29053509                       # the distribution of provider component (Count)
system.cpu.commit.commitSquashedInsts        26680059                       # The number of squashed insts skipped by commit (Count)
system.cpu.commit.commitNonSpecStalls              33                       # The number of times commit has been forced to stall to communicate backwards (Count)
system.cpu.commit.branchMispredicts            952392                       # The number of times a branch was mispredicted (Count)
system.cpu.commit.numCommittedDist::samples     28283667                       # Number of insts commited each cycle (Count)
system.cpu.commit.numCommittedDist::mean     1.767805                       # Number of insts commited each cycle (Count)
system.cpu.commit.numCommittedDist::stdev     2.824437                       # Number of insts commited each cycle (Count)
system.cpu.commit.numCommittedDist::underflows            0      0.00%      0.00% # Number of insts commited each cycle (Count)
system.cpu.commit.numCommittedDist::0        16538766     58.47%     58.47% # Number of insts commited each cycle (Count)
system.cpu.commit.numCommittedDist::1         3512626     12.42%     70.89% # Number of insts commited each cycle (Count)
system.cpu.commit.numCommittedDist::2         1303717      4.61%     75.50% # Number of insts commited each cycle (Count)
system.cpu.commit.numCommittedDist::3          995660      3.52%     79.02% # Number of insts commited each cycle (Count)
system.cpu.commit.numCommittedDist::4          891405      3.15%     82.18% # Number of insts commited each cycle (Count)
system.cpu.commit.numCommittedDist::5          616030      2.18%     84.35% # Number of insts commited each cycle (Count)
system.cpu.commit.numCommittedDist::6          394016      1.39%     85.75% # Number of insts commited each cycle (Count)
system.cpu.commit.numCommittedDist::7          368480      1.30%     87.05% # Number of insts commited each cycle (Count)
system.cpu.commit.numCommittedDist::8         3662967     12.95%    100.00% # Number of insts commited each cycle (Count)
system.cpu.commit.numCommittedDist::overflows            0      0.00%    100.00% # Number of insts commited each cycle (Count)
system.cpu.commit.numCommittedDist::min_value            0                       # Number of insts commited each cycle (Count)
system.cpu.commit.numCommittedDist::max_value            8                       # Number of insts commited each cycle (Count)
system.cpu.commit.numCommittedDist::total     28283667                       # Number of insts commited each cycle (Count)
system.cpu.commit.instsCommitted             50000002                       # Number of instructions committed (Count)
system.cpu.commit.opsCommitted               50000002                       # Number of ops (including micro ops) committed (Count)
system.cpu.commit.memRefs                    18035162                       # Number of memory references committed (Count)
system.cpu.commit.loads                      11944672                       # Number of loads committed (Count)
system.cpu.commit.amos                              0                       # Number of atomic instructions committed (Count)
system.cpu.commit.membars                           0                       # Number of memory barriers committed (Count)
system.cpu.commit.branches                    8015488                       # Number of branches committed (Count)
system.cpu.commit.vectorInstructions                0                       # Number of committed Vector instructions. (Count)
system.cpu.commit.floating                     268494                       # Number of committed floating point instructions. (Count)
system.cpu.commit.integer                    49597979                       # Number of committed integer instructions. (Count)
system.cpu.commit.functionCalls                468614                       # Number of function calls committed. (Count)
system.cpu.commit.committedInstType_0::No_OpClass           32      0.00%      0.00% # Class of committed instruction (Count)
system.cpu.commit.committedInstType_0::IntAlu     30681750     61.36%     61.36% # Class of committed instruction (Count)
system.cpu.commit.committedInstType_0::IntMult      1090152      2.18%     63.54% # Class of committed instruction (Count)
system.cpu.commit.committedInstType_0::IntDiv        44601      0.09%     63.63% # Class of committed instruction (Count)
system.cpu.commit.committedInstType_0::FloatAdd        19409      0.04%     63.67% # Class of committed instruction (Count)
system.cpu.commit.committedInstType_0::FloatCmp        42871      0.09%     63.76% # Class of committed instruction (Count)
system.cpu.commit.committedInstType_0::FloatCvt        47275      0.09%     63.85% # Class of committed instruction (Count)
system.cpu.commit.committedInstType_0::FloatMult        20960      0.04%     63.89% # Class of committed instruction (Count)
system.cpu.commit.committedInstType_0::FloatMultAcc         5433      0.01%     63.90% # Class of committed instruction (Count)
system.cpu.commit.committedInstType_0::FloatDiv         3602      0.01%     63.91% # Class of committed instruction (Count)
system.cpu.commit.committedInstType_0::FloatMisc         8755      0.02%     63.93% # Class of committed instruction (Count)
system.cpu.commit.committedInstType_0::FloatSqrt            0      0.00%     63.93% # Class of committed instruction (Count)
system.cpu.commit.committedInstType_0::SimdAdd            0      0.00%     63.93% # Class of committed instruction (Count)
system.cpu.commit.committedInstType_0::SimdAddAcc            0      0.00%     63.93% # Class of committed instruction (Count)
system.cpu.commit.committedInstType_0::SimdAlu            0      0.00%     63.93% # Class of committed instruction (Count)
system.cpu.commit.committedInstType_0::SimdCmp            0      0.00%     63.93% # Class of committed instruction (Count)
system.cpu.commit.committedInstType_0::SimdCvt            0      0.00%     63.93% # Class of committed instruction (Count)
system.cpu.commit.committedInstType_0::SimdMisc            0      0.00%     63.93% # Class of committed instruction (Count)
system.cpu.commit.committedInstType_0::SimdMult            0      0.00%     63.93% # Class of committed instruction (Count)
system.cpu.commit.committedInstType_0::SimdMultAcc            0      0.00%     63.93% # Class of committed instruction (Count)
system.cpu.commit.committedInstType_0::SimdShift            0      0.00%     63.93% # Class of committed instruction (Count)
system.cpu.commit.committedInstType_0::SimdShiftAcc            0      0.00%     63.93% # Class of committed instruction (Count)
system.cpu.commit.committedInstType_0::SimdDiv            0      0.00%     63.93% # Class of committed instruction (Count)
system.cpu.commit.committedInstType_0::SimdSqrt            0      0.00%     63.93% # Class of committed instruction (Count)
system.cpu.commit.committedInstType_0::SimdFloatAdd            0      0.00%     63.93% # Class of committed instruction (Count)
system.cpu.commit.committedInstType_0::SimdFloatAlu            0      0.00%     63.93% # Class of committed instruction (Count)
system.cpu.commit.committedInstType_0::SimdFloatCmp            0      0.00%     63.93% # Class of committed instruction (Count)
system.cpu.commit.committedInstType_0::SimdFloatCvt            0      0.00%     63.93% # Class of committed instruction (Count)
system.cpu.commit.committedInstType_0::SimdFloatDiv            0      0.00%     63.93% # Class of committed instruction (Count)
system.cpu.commit.committedInstType_0::SimdFloatMisc            0      0.00%     63.93% # Class of committed instruction (Count)
system.cpu.commit.committedInstType_0::SimdFloatMult            0      0.00%     63.93% # Class of committed instruction (Count)
system.cpu.commit.committedInstType_0::SimdFloatMultAcc            0      0.00%     63.93% # Class of committed instruction (Count)
system.cpu.commit.committedInstType_0::SimdFloatSqrt            0      0.00%     63.93% # Class of committed instruction (Count)
system.cpu.commit.committedInstType_0::SimdReduceAdd            0      0.00%     63.93% # Class of committed instruction (Count)
system.cpu.commit.committedInstType_0::SimdReduceAlu            0      0.00%     63.93% # Class of committed instruction (Count)
system.cpu.commit.committedInstType_0::SimdReduceCmp            0      0.00%     63.93% # Class of committed instruction (Count)
system.cpu.commit.committedInstType_0::SimdFloatReduceAdd            0      0.00%     63.93% # Class of committed instruction (Count)
system.cpu.commit.committedInstType_0::SimdFloatReduceCmp            0      0.00%     63.93% # Class of committed instruction (Count)
system.cpu.commit.committedInstType_0::SimdAes            0      0.00%     63.93% # Class of committed instruction (Count)
system.cpu.commit.committedInstType_0::SimdAesMix            0      0.00%     63.93% # Class of committed instruction (Count)
system.cpu.commit.committedInstType_0::SimdSha1Hash            0      0.00%     63.93% # Class of committed instruction (Count)
system.cpu.commit.committedInstType_0::SimdSha1Hash2            0      0.00%     63.93% # Class of committed instruction (Count)
system.cpu.commit.committedInstType_0::SimdSha256Hash            0      0.00%     63.93% # Class of committed instruction (Count)
system.cpu.commit.committedInstType_0::SimdSha256Hash2            0      0.00%     63.93% # Class of committed instruction (Count)
system.cpu.commit.committedInstType_0::SimdShaSigma2            0      0.00%     63.93% # Class of committed instruction (Count)
system.cpu.commit.committedInstType_0::SimdShaSigma3            0      0.00%     63.93% # Class of committed instruction (Count)
system.cpu.commit.committedInstType_0::SimdPredAlu            0      0.00%     63.93% # Class of committed instruction (Count)
system.cpu.commit.committedInstType_0::MemRead     11857858     23.72%     87.65% # Class of committed instruction (Count)
system.cpu.commit.committedInstType_0::MemWrite      6057115     12.11%     99.76% # Class of committed instruction (Count)
system.cpu.commit.committedInstType_0::FloatMemRead        86814      0.17%     99.93% # Class of committed instruction (Count)
system.cpu.commit.committedInstType_0::FloatMemWrite        33375      0.07%    100.00% # Class of committed instruction (Count)
system.cpu.commit.committedInstType_0::IprAccess            0      0.00%    100.00% # Class of committed instruction (Count)
system.cpu.commit.committedInstType_0::InstPrefetch            0      0.00%    100.00% # Class of committed instruction (Count)
system.cpu.commit.committedInstType_0::total     50000002                       # Class of committed instruction (Count)
system.cpu.commit.commitEligibleSamples       3662967                       # number cycles where commit BW limit reached (Cycle)
system.cpu.dcache.demandHits::cpu.data       20880124                       # number of demand (read+write) hits (Count)
system.cpu.dcache.demandHits::total          20880124                       # number of demand (read+write) hits (Count)
system.cpu.dcache.overallHits::cpu.data      20880124                       # number of overall hits (Count)
system.cpu.dcache.overallHits::total         20880124                       # number of overall hits (Count)
system.cpu.dcache.demandMisses::cpu.data       148495                       # number of demand (read+write) misses (Count)
system.cpu.dcache.demandMisses::total          148495                       # number of demand (read+write) misses (Count)
system.cpu.dcache.overallMisses::cpu.data       148495                       # number of overall misses (Count)
system.cpu.dcache.overallMisses::total         148495                       # number of overall misses (Count)
system.cpu.dcache.demandMissLatency::cpu.data   6228246500                       # number of demand (read+write) miss ticks (Tick)
system.cpu.dcache.demandMissLatency::total   6228246500                       # number of demand (read+write) miss ticks (Tick)
system.cpu.dcache.overallMissLatency::cpu.data   6228246500                       # number of overall miss ticks (Tick)
system.cpu.dcache.overallMissLatency::total   6228246500                       # number of overall miss ticks (Tick)
system.cpu.dcache.demandAccesses::cpu.data     21028619                       # number of demand (read+write) accesses (Count)
system.cpu.dcache.demandAccesses::total      21028619                       # number of demand (read+write) accesses (Count)
system.cpu.dcache.overallAccesses::cpu.data     21028619                       # number of overall (read+write) accesses (Count)
system.cpu.dcache.overallAccesses::total     21028619                       # number of overall (read+write) accesses (Count)
system.cpu.dcache.demandMissRate::cpu.data     0.007062                       # miss rate for demand accesses (Ratio)
system.cpu.dcache.demandMissRate::total      0.007062                       # miss rate for demand accesses (Ratio)
system.cpu.dcache.overallMissRate::cpu.data     0.007062                       # miss rate for overall accesses (Ratio)
system.cpu.dcache.overallMissRate::total     0.007062                       # miss rate for overall accesses (Ratio)
system.cpu.dcache.demandAvgMissLatency::cpu.data 41942.466076                       # average overall miss latency in ticks ((Tick/Count))
system.cpu.dcache.demandAvgMissLatency::total 41942.466076                       # average overall miss latency in ticks ((Tick/Count))
system.cpu.dcache.overallAvgMissLatency::cpu.data 41942.466076                       # average overall miss latency ((Tick/Count))
system.cpu.dcache.overallAvgMissLatency::total 41942.466076                       # average overall miss latency ((Tick/Count))
system.cpu.dcache.blockedCycles::no_mshrs         4320                       # number of cycles access was blocked (Cycle)
system.cpu.dcache.blockedCycles::no_targets          636                       # number of cycles access was blocked (Cycle)
system.cpu.dcache.blockedCauses::no_mshrs          349                       # number of times access was blocked (Count)
system.cpu.dcache.blockedCauses::no_targets           17                       # number of times access was blocked (Count)
system.cpu.dcache.avgBlocked::no_mshrs      12.378223                       # average number of cycles each access was blocked ((Cycle/Count))
system.cpu.dcache.avgBlocked::no_targets    37.411765                       # average number of cycles each access was blocked ((Cycle/Count))
system.cpu.dcache.writebacks::writebacks        24913                       # number of writebacks (Count)
system.cpu.dcache.writebacks::total             24913                       # number of writebacks (Count)
system.cpu.dcache.demandMshrHits::cpu.data        99128                       # number of demand (read+write) MSHR hits (Count)
system.cpu.dcache.demandMshrHits::total         99128                       # number of demand (read+write) MSHR hits (Count)
system.cpu.dcache.overallMshrHits::cpu.data        99128                       # number of overall MSHR hits (Count)
system.cpu.dcache.overallMshrHits::total        99128                       # number of overall MSHR hits (Count)
system.cpu.dcache.demandMshrMisses::cpu.data        49367                       # number of demand (read+write) MSHR misses (Count)
system.cpu.dcache.demandMshrMisses::total        49367                       # number of demand (read+write) MSHR misses (Count)
system.cpu.dcache.overallMshrMisses::cpu.data        49367                       # number of overall MSHR misses (Count)
system.cpu.dcache.overallMshrMisses::total        49367                       # number of overall MSHR misses (Count)
system.cpu.dcache.overallMshrUncacheable::cpu.data            2                       # number of overall MSHR uncacheable misses (Count)
system.cpu.dcache.overallMshrUncacheable::total            2                       # number of overall MSHR uncacheable misses (Count)
system.cpu.dcache.demandMshrMissLatency::cpu.data   2591805500                       # number of demand (read+write) MSHR miss ticks (Tick)
system.cpu.dcache.demandMshrMissLatency::total   2591805500                       # number of demand (read+write) MSHR miss ticks (Tick)
system.cpu.dcache.overallMshrMissLatency::cpu.data   2591805500                       # number of overall MSHR miss ticks (Tick)
system.cpu.dcache.overallMshrMissLatency::total   2591805500                       # number of overall MSHR miss ticks (Tick)
system.cpu.dcache.demandMshrMissRate::cpu.data     0.002348                       # mshr miss ratio for demand accesses (Ratio)
system.cpu.dcache.demandMshrMissRate::total     0.002348                       # mshr miss ratio for demand accesses (Ratio)
system.cpu.dcache.overallMshrMissRate::cpu.data     0.002348                       # mshr miss ratio for overall accesses (Ratio)
system.cpu.dcache.overallMshrMissRate::total     0.002348                       # mshr miss ratio for overall accesses (Ratio)
system.cpu.dcache.demandAvgMshrMissLatency::cpu.data 52500.769745                       # average overall mshr miss latency ((Tick/Count))
system.cpu.dcache.demandAvgMshrMissLatency::total 52500.769745                       # average overall mshr miss latency ((Tick/Count))
system.cpu.dcache.overallAvgMshrMissLatency::cpu.data 52500.769745                       # average overall mshr miss latency ((Tick/Count))
system.cpu.dcache.overallAvgMshrMissLatency::total 52500.769745                       # average overall mshr miss latency ((Tick/Count))
system.cpu.dcache.replacements                  47319                       # number of replacements (Count)
system.cpu.dcache.ReadReq.hits::cpu.data     14844219                       # number of ReadReq hits (Count)
system.cpu.dcache.ReadReq.hits::total        14844219                       # number of ReadReq hits (Count)
system.cpu.dcache.ReadReq.misses::cpu.data        93912                       # number of ReadReq misses (Count)
system.cpu.dcache.ReadReq.misses::total         93912                       # number of ReadReq misses (Count)
system.cpu.dcache.ReadReq.missLatency::cpu.data   5333937000                       # number of ReadReq miss ticks (Tick)
system.cpu.dcache.ReadReq.missLatency::total   5333937000                       # number of ReadReq miss ticks (Tick)
system.cpu.dcache.ReadReq.accesses::cpu.data     14938131                       # number of ReadReq accesses(hits+misses) (Count)
system.cpu.dcache.ReadReq.accesses::total     14938131                       # number of ReadReq accesses(hits+misses) (Count)
system.cpu.dcache.ReadReq.missRate::cpu.data     0.006287                       # miss rate for ReadReq accesses (Ratio)
system.cpu.dcache.ReadReq.missRate::total     0.006287                       # miss rate for ReadReq accesses (Ratio)
system.cpu.dcache.ReadReq.avgMissLatency::cpu.data 56797.182469                       # average ReadReq miss latency ((Tick/Count))
system.cpu.dcache.ReadReq.avgMissLatency::total 56797.182469                       # average ReadReq miss latency ((Tick/Count))
system.cpu.dcache.ReadReq.mshrHits::cpu.data        56344                       # number of ReadReq MSHR hits (Count)
system.cpu.dcache.ReadReq.mshrHits::total        56344                       # number of ReadReq MSHR hits (Count)
system.cpu.dcache.ReadReq.mshrMisses::cpu.data        37568                       # number of ReadReq MSHR misses (Count)
system.cpu.dcache.ReadReq.mshrMisses::total        37568                       # number of ReadReq MSHR misses (Count)
system.cpu.dcache.ReadReq.mshrMissLatency::cpu.data   2379348500                       # number of ReadReq MSHR miss ticks (Tick)
system.cpu.dcache.ReadReq.mshrMissLatency::total   2379348500                       # number of ReadReq MSHR miss ticks (Tick)
system.cpu.dcache.ReadReq.mshrMissRate::cpu.data     0.002515                       # mshr miss rate for ReadReq accesses (Ratio)
system.cpu.dcache.ReadReq.mshrMissRate::total     0.002515                       # mshr miss rate for ReadReq accesses (Ratio)
system.cpu.dcache.ReadReq.avgMshrMissLatency::cpu.data 63334.446870                       # average ReadReq mshr miss latency ((Tick/Count))
system.cpu.dcache.ReadReq.avgMshrMissLatency::total 63334.446870                       # average ReadReq mshr miss latency ((Tick/Count))
system.cpu.dcache.WriteReq.hits::cpu.data      6035905                       # number of WriteReq hits (Count)
system.cpu.dcache.WriteReq.hits::total        6035905                       # number of WriteReq hits (Count)
system.cpu.dcache.WriteReq.misses::cpu.data        54583                       # number of WriteReq misses (Count)
system.cpu.dcache.WriteReq.misses::total        54583                       # number of WriteReq misses (Count)
system.cpu.dcache.WriteReq.missLatency::cpu.data    894309500                       # number of WriteReq miss ticks (Tick)
system.cpu.dcache.WriteReq.missLatency::total    894309500                       # number of WriteReq miss ticks (Tick)
system.cpu.dcache.WriteReq.accesses::cpu.data      6090488                       # number of WriteReq accesses(hits+misses) (Count)
system.cpu.dcache.WriteReq.accesses::total      6090488                       # number of WriteReq accesses(hits+misses) (Count)
system.cpu.dcache.WriteReq.missRate::cpu.data     0.008962                       # miss rate for WriteReq accesses (Ratio)
system.cpu.dcache.WriteReq.missRate::total     0.008962                       # miss rate for WriteReq accesses (Ratio)
system.cpu.dcache.WriteReq.avgMissLatency::cpu.data 16384.396241                       # average WriteReq miss latency ((Tick/Count))
system.cpu.dcache.WriteReq.avgMissLatency::total 16384.396241                       # average WriteReq miss latency ((Tick/Count))
system.cpu.dcache.WriteReq.mshrHits::cpu.data        42784                       # number of WriteReq MSHR hits (Count)
system.cpu.dcache.WriteReq.mshrHits::total        42784                       # number of WriteReq MSHR hits (Count)
system.cpu.dcache.WriteReq.mshrMisses::cpu.data        11799                       # number of WriteReq MSHR misses (Count)
system.cpu.dcache.WriteReq.mshrMisses::total        11799                       # number of WriteReq MSHR misses (Count)
system.cpu.dcache.WriteReq.mshrUncacheable::cpu.data            2                       # number of WriteReq MSHR uncacheable (Count)
system.cpu.dcache.WriteReq.mshrUncacheable::total            2                       # number of WriteReq MSHR uncacheable (Count)
system.cpu.dcache.WriteReq.mshrMissLatency::cpu.data    212457000                       # number of WriteReq MSHR miss ticks (Tick)
system.cpu.dcache.WriteReq.mshrMissLatency::total    212457000                       # number of WriteReq MSHR miss ticks (Tick)
system.cpu.dcache.WriteReq.mshrMissRate::cpu.data     0.001937                       # mshr miss rate for WriteReq accesses (Ratio)
system.cpu.dcache.WriteReq.mshrMissRate::total     0.001937                       # mshr miss rate for WriteReq accesses (Ratio)
system.cpu.dcache.WriteReq.avgMshrMissLatency::cpu.data 18006.356471                       # average WriteReq mshr miss latency ((Tick/Count))
system.cpu.dcache.WriteReq.avgMshrMissLatency::total 18006.356471                       # average WriteReq mshr miss latency ((Tick/Count))
system.cpu.dcache.power_state.pwrStateResidencyTicks::UNDEFINED  16183619500                       # Cumulative time (in ticks) in various power states (Tick)
system.cpu.dcache.tags.tagsInUse          2022.580673                       # Average ticks per tags in use ((Tick/Count))
system.cpu.dcache.tags.totalRefs             14395150                       # Total number of references to valid blocks. (Count)
system.cpu.dcache.tags.sampledRefs              47319                       # Sample count of references to valid blocks. (Count)
system.cpu.dcache.tags.avgRefs             304.215009                       # Average number of references to valid blocks. ((Count/Count))
system.cpu.dcache.tags.warmupTick              153500                       # The tick when the warmup percentage was hit. (Tick)
system.cpu.dcache.tags.occupancies::cpu.data  2022.580673                       # Average occupied blocks per tick, per requestor ((Count/Tick))
system.cpu.dcache.tags.avgOccs::cpu.data     0.987588                       # Average percentage of cache occupancy ((Ratio/Tick))
system.cpu.dcache.tags.avgOccs::total        0.987588                       # Average percentage of cache occupancy ((Ratio/Tick))
system.cpu.dcache.tags.occupanciesTaskId::1024         2048                       # Occupied blocks per task id (Count)
system.cpu.dcache.tags.ageTaskId_1024::0           31                       # Occupied blocks per task id, per block age (Count)
system.cpu.dcache.tags.ageTaskId_1024::1          161                       # Occupied blocks per task id, per block age (Count)
system.cpu.dcache.tags.ageTaskId_1024::2         1100                       # Occupied blocks per task id, per block age (Count)
system.cpu.dcache.tags.ageTaskId_1024::3          746                       # Occupied blocks per task id, per block age (Count)
system.cpu.dcache.tags.ageTaskId_1024::4           10                       # Occupied blocks per task id, per block age (Count)
system.cpu.dcache.tags.ratioOccsTaskId::1024            1                       # Ratio of occupied blocks and all blocks, per task id (Ratio)
system.cpu.dcache.tags.tagAccesses          168278319                       # Number of tag accesses (Count)
system.cpu.dcache.tags.dataAccesses         168278319                       # Number of data accesses (Count)
system.cpu.dcache.tags.power_state.pwrStateResidencyTicks::UNDEFINED  16183619500                       # Cumulative time (in ticks) in various power states (Tick)
system.cpu.decode.idleCycles                  3177040                       # Number of cycles decode is idle (Cycle)
system.cpu.decode.blockedCycles              12307546                       # Number of cycles decode is blocked (Cycle)
system.cpu.decode.runCycles                  14914101                       # Number of cycles decode is running (Cycle)
system.cpu.decode.unblockCycles                924274                       # Number of cycles decode is unblocking (Cycle)
system.cpu.decode.squashCycles                 960975                       # Number of cycles decode is squashing (Cycle)
system.cpu.decode.branchResolved              6652723                       # Number of times decode resolved a branch (Count)
system.cpu.decode.branchMispred                 68980                       # Number of times decode detected a branch misprediction (Count)
system.cpu.decode.decodedInsts               89340065                       # Number of instructions handled by decode (Count)
system.cpu.decode.squashedInsts                421363                       # Number of squashed instructions handled by decode (Count)
system.cpu.dtb_walker_cache.demandHits::cpu.mmu.dtb.walker       148554                       # number of demand (read+write) hits (Count)
system.cpu.dtb_walker_cache.demandHits::total       148554                       # number of demand (read+write) hits (Count)
system.cpu.dtb_walker_cache.overallHits::cpu.mmu.dtb.walker       148554                       # number of overall hits (Count)
system.cpu.dtb_walker_cache.overallHits::total       148554                       # number of overall hits (Count)
system.cpu.dtb_walker_cache.demandMisses::cpu.mmu.dtb.walker        89839                       # number of demand (read+write) misses (Count)
system.cpu.dtb_walker_cache.demandMisses::total        89839                       # number of demand (read+write) misses (Count)
system.cpu.dtb_walker_cache.overallMisses::cpu.mmu.dtb.walker        89839                       # number of overall misses (Count)
system.cpu.dtb_walker_cache.overallMisses::total        89839                       # number of overall misses (Count)
system.cpu.dtb_walker_cache.demandMissLatency::cpu.mmu.dtb.walker   5583923500                       # number of demand (read+write) miss ticks (Tick)
system.cpu.dtb_walker_cache.demandMissLatency::total   5583923500                       # number of demand (read+write) miss ticks (Tick)
system.cpu.dtb_walker_cache.overallMissLatency::cpu.mmu.dtb.walker   5583923500                       # number of overall miss ticks (Tick)
system.cpu.dtb_walker_cache.overallMissLatency::total   5583923500                       # number of overall miss ticks (Tick)
system.cpu.dtb_walker_cache.demandAccesses::cpu.mmu.dtb.walker       238393                       # number of demand (read+write) accesses (Count)
system.cpu.dtb_walker_cache.demandAccesses::total       238393                       # number of demand (read+write) accesses (Count)
system.cpu.dtb_walker_cache.overallAccesses::cpu.mmu.dtb.walker       238393                       # number of overall (read+write) accesses (Count)
system.cpu.dtb_walker_cache.overallAccesses::total       238393                       # number of overall (read+write) accesses (Count)
system.cpu.dtb_walker_cache.demandMissRate::cpu.mmu.dtb.walker     0.376853                       # miss rate for demand accesses (Ratio)
system.cpu.dtb_walker_cache.demandMissRate::total     0.376853                       # miss rate for demand accesses (Ratio)
system.cpu.dtb_walker_cache.overallMissRate::cpu.mmu.dtb.walker     0.376853                       # miss rate for overall accesses (Ratio)
system.cpu.dtb_walker_cache.overallMissRate::total     0.376853                       # miss rate for overall accesses (Ratio)
system.cpu.dtb_walker_cache.demandAvgMissLatency::cpu.mmu.dtb.walker 62154.782444                       # average overall miss latency in ticks ((Tick/Count))
system.cpu.dtb_walker_cache.demandAvgMissLatency::total 62154.782444                       # average overall miss latency in ticks ((Tick/Count))
system.cpu.dtb_walker_cache.overallAvgMissLatency::cpu.mmu.dtb.walker 62154.782444                       # average overall miss latency ((Tick/Count))
system.cpu.dtb_walker_cache.overallAvgMissLatency::total 62154.782444                       # average overall miss latency ((Tick/Count))
system.cpu.dtb_walker_cache.blockedCycles::no_mshrs            0                       # number of cycles access was blocked (Cycle)
system.cpu.dtb_walker_cache.blockedCycles::no_targets            0                       # number of cycles access was blocked (Cycle)
system.cpu.dtb_walker_cache.blockedCauses::no_mshrs            0                       # number of times access was blocked (Count)
system.cpu.dtb_walker_cache.blockedCauses::no_targets            0                       # number of times access was blocked (Count)
system.cpu.dtb_walker_cache.avgBlocked::no_mshrs          nan                       # average number of cycles each access was blocked ((Cycle/Count))
system.cpu.dtb_walker_cache.avgBlocked::no_targets          nan                       # average number of cycles each access was blocked ((Cycle/Count))
system.cpu.dtb_walker_cache.demandMshrMisses::cpu.mmu.dtb.walker        89839                       # number of demand (read+write) MSHR misses (Count)
system.cpu.dtb_walker_cache.demandMshrMisses::total        89839                       # number of demand (read+write) MSHR misses (Count)
system.cpu.dtb_walker_cache.overallMshrMisses::cpu.mmu.dtb.walker        89839                       # number of overall MSHR misses (Count)
system.cpu.dtb_walker_cache.overallMshrMisses::total        89839                       # number of overall MSHR misses (Count)
system.cpu.dtb_walker_cache.demandMshrMissLatency::cpu.mmu.dtb.walker   5494085500                       # number of demand (read+write) MSHR miss ticks (Tick)
system.cpu.dtb_walker_cache.demandMshrMissLatency::total   5494085500                       # number of demand (read+write) MSHR miss ticks (Tick)
system.cpu.dtb_walker_cache.overallMshrMissLatency::cpu.mmu.dtb.walker   5494085500                       # number of overall MSHR miss ticks (Tick)
system.cpu.dtb_walker_cache.overallMshrMissLatency::total   5494085500                       # number of overall MSHR miss ticks (Tick)
system.cpu.dtb_walker_cache.demandMshrMissRate::cpu.mmu.dtb.walker     0.376853                       # mshr miss ratio for demand accesses (Ratio)
system.cpu.dtb_walker_cache.demandMshrMissRate::total     0.376853                       # mshr miss ratio for demand accesses (Ratio)
system.cpu.dtb_walker_cache.overallMshrMissRate::cpu.mmu.dtb.walker     0.376853                       # mshr miss ratio for overall accesses (Ratio)
system.cpu.dtb_walker_cache.overallMshrMissRate::total     0.376853                       # mshr miss ratio for overall accesses (Ratio)
system.cpu.dtb_walker_cache.demandAvgMshrMissLatency::cpu.mmu.dtb.walker 61154.793575                       # average overall mshr miss latency ((Tick/Count))
system.cpu.dtb_walker_cache.demandAvgMshrMissLatency::total 61154.793575                       # average overall mshr miss latency ((Tick/Count))
system.cpu.dtb_walker_cache.overallAvgMshrMissLatency::cpu.mmu.dtb.walker 61154.793575                       # average overall mshr miss latency ((Tick/Count))
system.cpu.dtb_walker_cache.overallAvgMshrMissLatency::total 61154.793575                       # average overall mshr miss latency ((Tick/Count))
system.cpu.dtb_walker_cache.replacements        89822                       # number of replacements (Count)
system.cpu.dtb_walker_cache.ReadReq.hits::cpu.mmu.dtb.walker       148554                       # number of ReadReq hits (Count)
system.cpu.dtb_walker_cache.ReadReq.hits::total       148554                       # number of ReadReq hits (Count)
system.cpu.dtb_walker_cache.ReadReq.misses::cpu.mmu.dtb.walker        89839                       # number of ReadReq misses (Count)
system.cpu.dtb_walker_cache.ReadReq.misses::total        89839                       # number of ReadReq misses (Count)
system.cpu.dtb_walker_cache.ReadReq.missLatency::cpu.mmu.dtb.walker   5583923500                       # number of ReadReq miss ticks (Tick)
system.cpu.dtb_walker_cache.ReadReq.missLatency::total   5583923500                       # number of ReadReq miss ticks (Tick)
system.cpu.dtb_walker_cache.ReadReq.accesses::cpu.mmu.dtb.walker       238393                       # number of ReadReq accesses(hits+misses) (Count)
system.cpu.dtb_walker_cache.ReadReq.accesses::total       238393                       # number of ReadReq accesses(hits+misses) (Count)
system.cpu.dtb_walker_cache.ReadReq.missRate::cpu.mmu.dtb.walker     0.376853                       # miss rate for ReadReq accesses (Ratio)
system.cpu.dtb_walker_cache.ReadReq.missRate::total     0.376853                       # miss rate for ReadReq accesses (Ratio)
system.cpu.dtb_walker_cache.ReadReq.avgMissLatency::cpu.mmu.dtb.walker 62154.782444                       # average ReadReq miss latency ((Tick/Count))
system.cpu.dtb_walker_cache.ReadReq.avgMissLatency::total 62154.782444                       # average ReadReq miss latency ((Tick/Count))
system.cpu.dtb_walker_cache.ReadReq.mshrMisses::cpu.mmu.dtb.walker        89839                       # number of ReadReq MSHR misses (Count)
system.cpu.dtb_walker_cache.ReadReq.mshrMisses::total        89839                       # number of ReadReq MSHR misses (Count)
system.cpu.dtb_walker_cache.ReadReq.mshrMissLatency::cpu.mmu.dtb.walker   5494085500                       # number of ReadReq MSHR miss ticks (Tick)
system.cpu.dtb_walker_cache.ReadReq.mshrMissLatency::total   5494085500                       # number of ReadReq MSHR miss ticks (Tick)
system.cpu.dtb_walker_cache.ReadReq.mshrMissRate::cpu.mmu.dtb.walker     0.376853                       # mshr miss rate for ReadReq accesses (Ratio)
system.cpu.dtb_walker_cache.ReadReq.mshrMissRate::total     0.376853                       # mshr miss rate for ReadReq accesses (Ratio)
system.cpu.dtb_walker_cache.ReadReq.avgMshrMissLatency::cpu.mmu.dtb.walker 61154.793575                       # average ReadReq mshr miss latency ((Tick/Count))
system.cpu.dtb_walker_cache.ReadReq.avgMshrMissLatency::total 61154.793575                       # average ReadReq mshr miss latency ((Tick/Count))
system.cpu.dtb_walker_cache.power_state.pwrStateResidencyTicks::UNDEFINED  16183619500                       # Cumulative time (in ticks) in various power states (Tick)
system.cpu.dtb_walker_cache.tags.tagsInUse    15.991996                       # Average ticks per tags in use ((Tick/Count))
system.cpu.dtb_walker_cache.tags.totalRefs       238339                       # Total number of references to valid blocks. (Count)
system.cpu.dtb_walker_cache.tags.sampledRefs        89822                       # Sample count of references to valid blocks. (Count)
system.cpu.dtb_walker_cache.tags.avgRefs     2.653459                       # Average number of references to valid blocks. ((Count/Count))
system.cpu.dtb_walker_cache.tags.warmupTick      1660500                       # The tick when the warmup percentage was hit. (Tick)
system.cpu.dtb_walker_cache.tags.occupancies::cpu.mmu.dtb.walker    15.991996                       # Average occupied blocks per tick, per requestor ((Count/Tick))
system.cpu.dtb_walker_cache.tags.avgOccs::cpu.mmu.dtb.walker     0.999500                       # Average percentage of cache occupancy ((Ratio/Tick))
system.cpu.dtb_walker_cache.tags.avgOccs::total     0.999500                       # Average percentage of cache occupancy ((Ratio/Tick))
system.cpu.dtb_walker_cache.tags.occupanciesTaskId::1024           16                       # Occupied blocks per task id (Count)
system.cpu.dtb_walker_cache.tags.ageTaskId_1024::0           11                       # Occupied blocks per task id, per block age (Count)
system.cpu.dtb_walker_cache.tags.ageTaskId_1024::1            5                       # Occupied blocks per task id, per block age (Count)
system.cpu.dtb_walker_cache.tags.ratioOccsTaskId::1024            1                       # Ratio of occupied blocks and all blocks, per task id (Ratio)
system.cpu.dtb_walker_cache.tags.tagAccesses       566624                       # Number of tag accesses (Count)
system.cpu.dtb_walker_cache.tags.dataAccesses       566624                       # Number of data accesses (Count)
system.cpu.dtb_walker_cache.tags.power_state.pwrStateResidencyTicks::UNDEFINED  16183619500                       # Cumulative time (in ticks) in various power states (Tick)
system.cpu.fetch.icacheStallCycles              37878                       # Number of cycles fetch is stalled on an Icache miss (Cycle)
system.cpu.fetch.insts                       96943264                       # Number of instructions fetch has processed (Count)
system.cpu.fetch.branches                     7931594                       # Number of branches that fetch encountered (Count)
system.cpu.fetch.predictedBranches            7931594                       # Number of branches that fetch has predicted taken (Count)
system.cpu.fetch.cycles                      31203552                       # Number of cycles fetch has run and was not squashing or blocked (Cycle)
system.cpu.fetch.squashCycles                 2049822                       # Number of cycles fetch has spent squashing (Cycle)
system.cpu.fetch.tlbCycles                      10877                       # Number of cycles fetch has spent waiting for tlb (Cycle)
system.cpu.fetch.miscStallCycles                 2697                       # Number of cycles fetch has spent waiting on interrupts, or bad addresses, or out of MSHRs (Cycle)
system.cpu.fetch.pendingTrapStallCycles          1215                       # Number of stall cycles due to pending traps (Cycle)
system.cpu.fetch.icacheWaitRetryStallCycles         2806                       # Number of stall cycles due to full MSHR (Cycle)
system.cpu.fetch.cacheLines                  11060483                       # Number of cache lines fetched (Count)
system.cpu.fetch.icacheSquashes                  1454                       # Number of outstanding Icache misses that were squashed (Count)
system.cpu.fetch.tlbSquashes                      131                       # Number of outstanding ITLB misses that were squashed (Count)
system.cpu.fetch.nisnDist::samples           32283936                       # Number of instructions fetched each cycle (Total) (Count)
system.cpu.fetch.nisnDist::mean              3.002833                       # Number of instructions fetched each cycle (Total) (Count)
system.cpu.fetch.nisnDist::stdev             3.183840                       # Number of instructions fetched each cycle (Total) (Count)
system.cpu.fetch.nisnDist::underflows               0      0.00%      0.00% # Number of instructions fetched each cycle (Total) (Count)
system.cpu.fetch.nisnDist::0                 12323731     38.17%     38.17% # Number of instructions fetched each cycle (Total) (Count)
system.cpu.fetch.nisnDist::1                  3506797     10.86%     49.04% # Number of instructions fetched each cycle (Total) (Count)
system.cpu.fetch.nisnDist::2                  2006610      6.22%     55.25% # Number of instructions fetched each cycle (Total) (Count)
system.cpu.fetch.nisnDist::3                  1969715      6.10%     61.35% # Number of instructions fetched each cycle (Total) (Count)
system.cpu.fetch.nisnDist::4                  1908774      5.91%     67.26% # Number of instructions fetched each cycle (Total) (Count)
system.cpu.fetch.nisnDist::5                  1558735      4.83%     72.09% # Number of instructions fetched each cycle (Total) (Count)
system.cpu.fetch.nisnDist::6                  1424056      4.41%     76.50% # Number of instructions fetched each cycle (Total) (Count)
system.cpu.fetch.nisnDist::7                  1143139      3.54%     80.04% # Number of instructions fetched each cycle (Total) (Count)
system.cpu.fetch.nisnDist::8                  6442379     19.96%    100.00% # Number of instructions fetched each cycle (Total) (Count)
system.cpu.fetch.nisnDist::overflows                0      0.00%    100.00% # Number of instructions fetched each cycle (Total) (Count)
system.cpu.fetch.nisnDist::min_value                0                       # Number of instructions fetched each cycle (Total) (Count)
system.cpu.fetch.nisnDist::max_value                8                       # Number of instructions fetched each cycle (Total) (Count)
system.cpu.fetch.nisnDist::total             32283936                       # Number of instructions fetched each cycle (Total) (Count)
system.cpu.fetch.branchRate                  0.245050                       # Number of branch fetches per cycle (Ratio)
system.cpu.fetch.rate                        2.995104                       # Number of inst fetches per cycle ((Count/Cycle))
system.cpu.icache.demandHits::cpu.inst       11057983                       # number of demand (read+write) hits (Count)
system.cpu.icache.demandHits::total          11057983                       # number of demand (read+write) hits (Count)
system.cpu.icache.overallHits::cpu.inst      11057983                       # number of overall hits (Count)
system.cpu.icache.overallHits::total         11057983                       # number of overall hits (Count)
system.cpu.icache.demandMisses::cpu.inst         2455                       # number of demand (read+write) misses (Count)
system.cpu.icache.demandMisses::total            2455                       # number of demand (read+write) misses (Count)
system.cpu.icache.overallMisses::cpu.inst         2455                       # number of overall misses (Count)
system.cpu.icache.overallMisses::total           2455                       # number of overall misses (Count)
system.cpu.icache.demandMissLatency::cpu.inst    132427981                       # number of demand (read+write) miss ticks (Tick)
system.cpu.icache.demandMissLatency::total    132427981                       # number of demand (read+write) miss ticks (Tick)
system.cpu.icache.overallMissLatency::cpu.inst    132427981                       # number of overall miss ticks (Tick)
system.cpu.icache.overallMissLatency::total    132427981                       # number of overall miss ticks (Tick)
system.cpu.icache.demandAccesses::cpu.inst     11060438                       # number of demand (read+write) accesses (Count)
system.cpu.icache.demandAccesses::total      11060438                       # number of demand (read+write) accesses (Count)
system.cpu.icache.overallAccesses::cpu.inst     11060438                       # number of overall (read+write) accesses (Count)
system.cpu.icache.overallAccesses::total     11060438                       # number of overall (read+write) accesses (Count)
system.cpu.icache.demandMissRate::cpu.inst     0.000222                       # miss rate for demand accesses (Ratio)
system.cpu.icache.demandMissRate::total      0.000222                       # miss rate for demand accesses (Ratio)
system.cpu.icache.overallMissRate::cpu.inst     0.000222                       # miss rate for overall accesses (Ratio)
system.cpu.icache.overallMissRate::total     0.000222                       # miss rate for overall accesses (Ratio)
system.cpu.icache.demandAvgMissLatency::cpu.inst 53942.151120                       # average overall miss latency in ticks ((Tick/Count))
system.cpu.icache.demandAvgMissLatency::total 53942.151120                       # average overall miss latency in ticks ((Tick/Count))
system.cpu.icache.overallAvgMissLatency::cpu.inst 53942.151120                       # average overall miss latency ((Tick/Count))
system.cpu.icache.overallAvgMissLatency::total 53942.151120                       # average overall miss latency ((Tick/Count))
system.cpu.icache.blockedCycles::no_mshrs        30212                       # number of cycles access was blocked (Cycle)
system.cpu.icache.blockedCycles::no_targets            0                       # number of cycles access was blocked (Cycle)
system.cpu.icache.blockedCauses::no_mshrs          359                       # number of times access was blocked (Count)
system.cpu.icache.blockedCauses::no_targets            0                       # number of times access was blocked (Count)
system.cpu.icache.avgBlocked::no_mshrs      84.155989                       # average number of cycles each access was blocked ((Cycle/Count))
system.cpu.icache.avgBlocked::no_targets          nan                       # average number of cycles each access was blocked ((Cycle/Count))
system.cpu.icache.writebacks::writebacks          193                       # number of writebacks (Count)
system.cpu.icache.writebacks::total               193                       # number of writebacks (Count)
system.cpu.icache.demandMshrHits::cpu.inst          671                       # number of demand (read+write) MSHR hits (Count)
system.cpu.icache.demandMshrHits::total           671                       # number of demand (read+write) MSHR hits (Count)
system.cpu.icache.overallMshrHits::cpu.inst          671                       # number of overall MSHR hits (Count)
system.cpu.icache.overallMshrHits::total          671                       # number of overall MSHR hits (Count)
[...]
system.mem_ctrls.dram.bytesPerActivate::stdev   235.465937                       # Bytes accessed per row activation (Byte)
system.mem_ctrls.dram.bytesPerActivate::0-127        23884     55.96%     55.96% # Bytes accessed per row activation (Byte)
system.mem_ctrls.dram.bytesPerActivate::128-255         8672     20.32%     76.28% # Bytes accessed per row activation (Byte)
system.mem_ctrls.dram.bytesPerActivate::256-383         2989      7.00%     83.28% # Bytes accessed per row activation (Byte)
system.mem_ctrls.dram.bytesPerActivate::384-511         2012      4.71%     87.99% # Bytes accessed per row activation (Byte)
system.mem_ctrls.dram.bytesPerActivate::512-639         1583      3.71%     91.70% # Bytes accessed per row activation (Byte)
system.mem_ctrls.dram.bytesPerActivate::640-767         1078      2.53%     94.23% # Bytes accessed per row activation (Byte)
system.mem_ctrls.dram.bytesPerActivate::768-895          739      1.73%     95.96% # Bytes accessed per row activation (Byte)
system.mem_ctrls.dram.bytesPerActivate::896-1023          539      1.26%     97.22% # Bytes accessed per row activation (Byte)
system.mem_ctrls.dram.bytesPerActivate::1024-1151         1186      2.78%    100.00% # Bytes accessed per row activation (Byte)
system.mem_ctrls.dram.bytesPerActivate::total        42682                       # Bytes accessed per row activation (Byte)
system.mem_ctrls.dram.bytesRead               7929088                       # Total bytes read (Byte)
system.mem_ctrls.dram.bytesWritten             434688                       # Total bytes written (Byte)
system.mem_ctrls.dram.avgRdBW              487.800614                       # Average DRAM read bandwidth in MiBytes/s ((Byte/Second))
system.mem_ctrls.dram.avgWrBW               26.742177                       # Average DRAM write bandwidth in MiBytes/s ((Byte/Second))
system.mem_ctrls.dram.peakBW                 19207.00                       # Theoretical peak bandwidth in MiByte/s ((Byte/Second))
system.mem_ctrls.dram.busUtil                    2.68                       # Data bus utilization in percentage (Ratio)
system.mem_ctrls.dram.busUtilRead                2.54                       # Data bus utilization in percentage for reads (Ratio)
system.mem_ctrls.dram.busUtilWrite               0.14                       # Data bus utilization in percentage for writes (Ratio)
system.mem_ctrls.dram.pageHitRate               67.34                       # Row buffer hit rate, read and write combined (Ratio)
system.mem_ctrls.dram.power_state.pwrStateResidencyTicks::UNDEFINED  16254772500                       # Cumulative time (in ticks) in various power states (Tick)
system.mem_ctrls.dram.rank0.actEnergy    64567522.656000                       # Energy for activate commands per rank (pJ) (Joule)
system.mem_ctrls.dram.rank0.preEnergy    85854132.604800                       # Energy for precharge commands per rank (pJ) (Joule)
system.mem_ctrls.dram.rank0.readEnergy   323381635.583999                       # Energy for read commands per rank (pJ) (Joule)
system.mem_ctrls.dram.rank0.writeEnergy  9892361.472000                       # Energy for write commands per rank (pJ) (Joule)
system.mem_ctrls.dram.rank0.refreshEnergy 2892668485.593587                       # Energy for refresh commands per rank (pJ) (Joule)
system.mem_ctrls.dram.rank0.actBackEnergy 12462152576.227089                       # Energy for active background per rank (pJ) (Joule)
system.mem_ctrls.dram.rank0.preBackEnergy 1035676539.609613                       # Energy for precharge background per rank (pJ) (Joule)
system.mem_ctrls.dram.rank0.actPowerDownEnergy            0                       # Energy for active power-down per rank (pJ) (Joule)
system.mem_ctrls.dram.rank0.prePowerDownEnergy            0                       # Energy for precharge power-down per rank (pJ) (Joule)
system.mem_ctrls.dram.rank0.selfRefreshEnergy            0                       # Energy for self refresh per rank (pJ) (Joule)
system.mem_ctrls.dram.rank0.totalEnergy  16874193253.747177                       # Total energy per rank (pJ) (Joule)
system.mem_ctrls.dram.rank0.averagePower  1038.107008                       # Core power per rank (mW) (Watt)
system.mem_ctrls.dram.rank0.totalIdleTime            0                       # Total Idle time Per DRAM Rank (Tick)
system.mem_ctrls.dram.rank0.pwrStateTime::IDLE   1530313300                       # Time in different power states (Tick)
system.mem_ctrls.dram.rank0.pwrStateTime::REF    730800000                       # Time in different power states (Tick)
system.mem_ctrls.dram.rank0.pwrStateTime::SREF            0                       # Time in different power states (Tick)
system.mem_ctrls.dram.rank0.pwrStateTime::PRE_PDN            0                       # Time in different power states (Tick)
system.mem_ctrls.dram.rank0.pwrStateTime::ACT  13993659200                       # Time in different power states (Tick)
system.mem_ctrls.dram.rank0.pwrStateTime::ACT_PDN            0                       # Time in different power states (Tick)
system.mem_ctrls.dram.rank1.actEnergy    68528337.696000                       # Energy for activate commands per rank (pJ) (Joule)
system.mem_ctrls.dram.rank1.preEnergy    91119985.420800                       # Energy for precharge commands per rank (pJ) (Joule)
system.mem_ctrls.dram.rank1.readEnergy   197747365.401599                       # Energy for read commands per rank (pJ) (Joule)
system.mem_ctrls.dram.rank1.writeEnergy  15635343.360000                       # Energy for write commands per rank (pJ) (Joule)
system.mem_ctrls.dram.rank1.refreshEnergy 2892668485.593587                       # Energy for refresh commands per rank (pJ) (Joule)
system.mem_ctrls.dram.rank1.actBackEnergy 12259722924.489479                       # Energy for active background per rank (pJ) (Joule)
system.mem_ctrls.dram.rank1.preBackEnergy 1191215707.046411                       # Energy for precharge background per rank (pJ) (Joule)
system.mem_ctrls.dram.rank1.actPowerDownEnergy            0                       # Energy for active power-down per rank (pJ) (Joule)
system.mem_ctrls.dram.rank1.prePowerDownEnergy            0                       # Energy for precharge power-down per rank (pJ) (Joule)
system.mem_ctrls.dram.rank1.selfRefreshEnergy            0                       # Energy for self refresh per rank (pJ) (Joule)
system.mem_ctrls.dram.rank1.totalEnergy  16716638149.007988                       # Total energy per rank (pJ) (Joule)
system.mem_ctrls.dram.rank1.averagePower  1028.414156                       # Core power per rank (mW) (Watt)
system.mem_ctrls.dram.rank1.totalIdleTime            0                       # Total Idle time Per DRAM Rank (Tick)
system.mem_ctrls.dram.rank1.pwrStateTime::IDLE   1767968834                       # Time in different power states (Tick)
system.mem_ctrls.dram.rank1.pwrStateTime::REF    730800000                       # Time in different power states (Tick)
system.mem_ctrls.dram.rank1.pwrStateTime::SREF            0                       # Time in different power states (Tick)
system.mem_ctrls.dram.rank1.pwrStateTime::PRE_PDN            0                       # Time in different power states (Tick)
system.mem_ctrls.dram.rank1.pwrStateTime::ACT  13756003666                       # Time in different power states (Tick)
system.mem_ctrls.dram.rank1.pwrStateTime::ACT_PDN            0                       # Time in different power states (Tick)
system.mem_ctrls.power_state.pwrStateResidencyTicks::UNDEFINED  16254772500                       # Cumulative time (in ticks) in various power states (Tick)
system.membus.transDist::ReadResp              122990                       # Transaction distribution (Count)
system.membus.transDist::WritebackDirty          6793                       # Transaction distribution (Count)
system.membus.transDist::CleanEvict             79504                       # Transaction distribution (Count)
system.membus.transDist::ReadExReq                909                       # Transaction distribution (Count)
system.membus.transDist::ReadExResp               909                       # Transaction distribution (Count)
system.membus.transDist::ReadCleanReq          122989                       # Transaction distribution (Count)
system.membus.pktCount_system.l2.mem_side_port::system.mem_ctrls.port       334094                       # Packet count per connected requestor and responder (Count)
system.membus.pktCount_system.l2.mem_side_port::total       334094                       # Packet count per connected requestor and responder (Count)
system.membus.pktCount::total                  334094                       # Packet count per connected requestor and responder (Count)
system.membus.pktSize_system.l2.mem_side_port::system.mem_ctrls.port      8364288                       # Cumulative packet size per connected requestor and responder (Byte)
system.membus.pktSize_system.l2.mem_side_port::total      8364288                       # Cumulative packet size per connected requestor and responder (Byte)
system.membus.pktSize::total                  8364288                       # Cumulative packet size per connected requestor and responder (Byte)
system.membus.snoops                                0                       # Total snoops (Count)
system.membus.snoopTraffic                          0                       # Total snoop traffic (Byte)
system.membus.snoopFanout::samples             123898                       # Request fanout histogram (Count)
system.membus.snoopFanout::mean                     0                       # Request fanout histogram (Count)
system.membus.snoopFanout::stdev                    0                       # Request fanout histogram (Count)
system.membus.snoopFanout::underflows               0      0.00%      0.00% # Request fanout histogram (Count)
system.membus.snoopFanout::0                   123898    100.00%    100.00% # Request fanout histogram (Count)
system.membus.snoopFanout::1                        0      0.00%    100.00% # Request fanout histogram (Count)
system.membus.snoopFanout::2                        0      0.00%    100.00% # Request fanout histogram (Count)
system.membus.snoopFanout::overflows                0      0.00%    100.00% # Request fanout histogram (Count)
system.membus.snoopFanout::min_value                0                       # Request fanout histogram (Count)
system.membus.snoopFanout::max_value                0                       # Request fanout histogram (Count)
system.membus.snoopFanout::total               123898                       # Request fanout histogram (Count)
system.membus.badaddr_responder.power_state.pwrStateResidencyTicks::UNDEFINED  16254772500                       # Cumulative time (in ticks) in various power states (Tick)
system.membus.power_state.pwrStateResidencyTicks::UNDEFINED  16254772500                       # Cumulative time (in ticks) in various power states (Tick)
system.membus.reqLayer4.occupancy           261191000                       # Layer occupancy (ticks) (Tick)
system.membus.reqLayer4.utilization               0.0                       # Layer utilization (Ratio)
system.membus.respLayer2.occupancy          670054608                       # Layer occupancy (ticks) (Tick)
system.membus.respLayer2.utilization              0.0                       # Layer utilization (Ratio)
system.membus.snoop_filter.totRequests         210195                       # Total number of requests made to the snoop filter. (Count)
system.membus.snoop_filter.hitSingleRequests       119732                       # Number of requests hitting in the snoop filter with a single holder of the requested data. (Count)
system.membus.snoop_filter.hitMultiRequests            0                       # Number of requests hitting in the snoop filter with multiple (>1) holders of the requested data. (Count)
system.membus.snoop_filter.totSnoops                0                       # Total number of snoops made to the snoop filter. (Count)
system.membus.snoop_filter.hitSingleSnoops            0                       # Number of snoops hitting in the snoop filter with a single holder of the requested data. (Count)
system.membus.snoop_filter.hitMultiSnoops            0                       # Number of snoops hitting in the snoop filter with multiple (>1) holders of the requested data. (Count)
system.mmcs.power_state.pwrStateResidencyTicks::UNDEFINED  16254772500                       # Cumulative time (in ticks) in various power states (Tick)
system.tol2bus.transDist::ReadResp             128155                       # Transaction distribution (Count)
system.tol2bus.transDist::WritebackDirty        33085                       # Transaction distribution (Count)
system.tol2bus.transDist::WritebackClean          195                       # Transaction distribution (Count)
system.tol2bus.transDist::CleanEvict           112974                       # Transaction distribution (Count)
system.tol2bus.transDist::ReadExReq             11334                       # Transaction distribution (Count)
system.tol2bus.transDist::ReadExResp            11334                       # Transaction distribution (Count)
system.tol2bus.transDist::ReadCleanReq            236                       # Transaction distribution (Count)
system.tol2bus.transDist::ReadSharedReq        127918                       # Transaction distribution (Count)
system.tol2bus.transDist::InvalidateReq             5                       # Transaction distribution (Count)
system.tol2bus.transDist::InvalidateResp            5                       # Transaction distribution (Count)
system.tol2bus.pktCount_system.cpu.icache.mem_side_port::system.l2.cpu_side_port          667                       # Packet count per connected requestor and responder (Count)
system.tol2bus.pktCount_system.cpu.dcache.mem_side_port::system.l2.cpu_side_port       147156                       # Packet count per connected requestor and responder (Count)
system.tol2bus.pktCount_system.cpu.itb_walker_cache.mem_side_port::system.l2.cpu_side_port          630                       # Packet count per connected requestor and responder (Count)
system.tol2bus.pktCount_system.cpu.dtb_walker_cache.mem_side_port::system.l2.cpu_side_port       269987                       # Packet count per connected requestor and responder (Count)
system.tol2bus.pktCount::total                 418440                       # Packet count per connected requestor and responder (Count)
system.tol2bus.pktSize_system.cpu.icache.mem_side_port::system.l2.cpu_side_port        27584                       # Cumulative packet size per connected requestor and responder (Byte)
system.tol2bus.pktSize_system.cpu.dcache.mem_side_port::system.l2.cpu_side_port      4821696                       # Cumulative packet size per connected requestor and responder (Byte)
system.tol2bus.pktSize_system.cpu.itb_walker_cache.mem_side_port::system.l2.cpu_side_port        13440                       # Cumulative packet size per connected requestor and responder (Byte)
system.tol2bus.pktSize_system.cpu.dtb_walker_cache.mem_side_port::system.l2.cpu_side_port      5759744                       # Cumulative packet size per connected requestor and responder (Byte)
system.tol2bus.pktSize::total                10622464                       # Cumulative packet size per connected requestor and responder (Byte)
system.tol2bus.snoops                            6801                       # Total snoops (Count)
system.tol2bus.snoopTraffic                    434752                       # Total snoop traffic (Byte)
system.tol2bus.snoopFanout::samples            146294                       # Request fanout histogram (Count)
system.tol2bus.snoopFanout::mean             0.228786                       # Request fanout histogram (Count)
system.tol2bus.snoopFanout::stdev            0.420052                       # Request fanout histogram (Count)
system.tol2bus.snoopFanout::underflows              0      0.00%      0.00% # Request fanout histogram (Count)
system.tol2bus.snoopFanout::0                  112824     77.12%     77.12% # Request fanout histogram (Count)
system.tol2bus.snoopFanout::1                   33470     22.88%    100.00% # Request fanout histogram (Count)
system.tol2bus.snoopFanout::2                       0      0.00%    100.00% # Request fanout histogram (Count)
system.tol2bus.snoopFanout::3                       0      0.00%    100.00% # Request fanout histogram (Count)
system.tol2bus.snoopFanout::4                       0      0.00%    100.00% # Request fanout histogram (Count)
system.tol2bus.snoopFanout::overflows               0      0.00%    100.00% # Request fanout histogram (Count)
system.tol2bus.snoopFanout::min_value               0                       # Request fanout histogram (Count)
system.tol2bus.snoopFanout::max_value               1                       # Request fanout histogram (Count)
system.tol2bus.snoopFanout::total              146294                       # Request fanout histogram (Count)
system.tol2bus.power_state.pwrStateResidencyTicks::UNDEFINED  16254772500                       # Cumulative time (in ticks) in various power states (Tick)
system.tol2bus.reqLayer0.occupancy          152716500                       # Layer occupancy (ticks) (Tick)
system.tol2bus.reqLayer0.utilization              0.0                       # Layer utilization (Ratio)
system.tol2bus.respLayer0.occupancy            236499                       # Layer occupancy (ticks) (Tick)
system.tol2bus.respLayer0.utilization             0.0                       # Layer utilization (Ratio)
system.tol2bus.respLayer1.occupancy          49049500                       # Layer occupancy (ticks) (Tick)
system.tol2bus.respLayer1.utilization             0.0                       # Layer utilization (Ratio)
system.tol2bus.respLayer2.occupancy            220978                       # Layer occupancy (ticks) (Tick)
system.tol2bus.respLayer2.utilization             0.0                       # Layer utilization (Ratio)
system.tol2bus.respLayer3.occupancy          90008974                       # Layer occupancy (ticks) (Tick)
system.tol2bus.respLayer3.utilization             0.0                       # Layer utilization (Ratio)
system.tol2bus.snoop_filter.totRequests        278946                       # Total number of requests made to the snoop filter. (Count)
system.tol2bus.snoop_filter.hitSingleRequests       139453                       # Number of requests hitting in the snoop filter with a single holder of the requested data. (Count)
system.tol2bus.snoop_filter.hitMultiRequests        33470                       # Number of requests hitting in the snoop filter with multiple (>1) holders of the requested data. (Count)
system.tol2bus.snoop_filter.totSnoops               0                       # Total number of snoops made to the snoop filter. (Count)
system.tol2bus.snoop_filter.hitSingleSnoops            0                       # Number of snoops hitting in the snoop filter with a single holder of the requested data. (Count)
system.tol2bus.snoop_filter.hitMultiSnoops            0                       # Number of snoops hitting in the snoop filter with multiple (>1) holders of the requested data. (Count)
system.uartlite.power_state.pwrStateResidencyTicks::UNDEFINED  16254772500                       # Cumulative time (in ticks) in various power states (Tick)
system.voltage_domain.voltage                       1                       # Voltage in Volts (Volt)
system.workload.inst.arm                            0                       # number of arm instructions executed (Count)
system.workload.inst.quiesce                        0                       # number of quiesce instructions executed (Count)

---------- End Simulation Statistics   ----------
