
---------- Begin Simulation Statistics ----------
simSeconds                                   0.681026                       # Number of seconds simulated (Second)
simTicks                                 681026364500                       # Number of ticks simulated (Tick)
finalTick                                681026364500                       # Number of ticks from beginning of simulation (restored from checkpoints and never reset) (Tick)
simFreq                                  1000000000000                       # The number of ticks per simulated second ((Tick/Second))
hostSeconds                                   3206.28                       # Real time elapsed on the host (Second)
hostTickRate                                212404111                       # The number of ticks simulated per host second (ticks/s) ((Tick/Second))
hostMemory                                   25617984                       # Number of bytes of host memory used (Byte)
simInsts                                     50000001                       # Number of instructions simulated (Count)
simOps                                       50000001                       # Number of ops (including micro ops) simulated (Count)
hostInstRate                                    15594                       # Simulator instruction rate (inst/s) ((Count/Second))
hostOpRate                                      15594                       # Simulator op (including micro ops) rate (op/s) ((Count/Second))
system.bridge.power_state.pwrStateResidencyTicks::UNDEFINED 681026364500                       # Cumulative time (in ticks) in various power states (Tick)
system.clk_domain.clock                          1000                       # Clock period in ticks (Tick)
system.cpu.numCycles                       1362052730                       # Number of cpu cycles simulated (Cycle)
system.cpu.numWorkItemsStarted                      0                       # Number of work items this cpu started (Count)
system.cpu.numWorkItemsCompleted                    0                       # Number of work items this cpu completed (Count)
system.cpu.instsAdded                        88262274                       # Number of instructions added to the IQ (excludes non-spec) (Count)
system.cpu.nonSpecInstsAdded                       33                       # Number of non-speculative instructions added to the IQ (Count)
system.cpu.instsIssued                       77203374                       # Number of instructions issued (Count)
system.cpu.squashedInstsIssued                2919513                       # Number of squashed instructions issued (Count)
system.cpu.squashedInstsExamined             38262275                       # Number of squashed instructions iterated over during squash; mainly for profiling (Count)
system.cpu.squashedOperandsExamined          34026238                       # Number of squashed operands that are examined and possibly removed from graph (Count)
system.cpu.numIssuedDist::samples          1362052056                       # Number of insts issued each cycle (Count)
system.cpu.numIssuedDist::mean               0.056682                       # Number of insts issued each cycle (Count)
system.cpu.numIssuedDist::stdev              0.417884                       # Number of insts issued each cycle (Count)
system.cpu.numIssuedDist::underflows                0      0.00%      0.00% # Number of insts issued each cycle (Count)
system.cpu.numIssuedDist::0                1320617774     96.96%     96.96% # Number of insts issued each cycle (Count)
system.cpu.numIssuedDist::1                  27066610      1.99%     98.95% # Number of insts issued each cycle (Count)
system.cpu.numIssuedDist::2                   6113966      0.45%     99.39% # Number of insts issued each cycle (Count)
system.cpu.numIssuedDist::3                   2077938      0.15%     99.55% # Number of insts issued each cycle (Count)
system.cpu.numIssuedDist::4                   2512497      0.18%     99.73% # Number of insts issued each cycle (Count)
system.cpu.numIssuedDist::5                   1858998      0.14%     99.87% # Number of insts issued each cycle (Count)
system.cpu.numIssuedDist::6                    708475      0.05%     99.92% # Number of insts issued each cycle (Count)
system.cpu.numIssuedDist::7                    687194      0.05%     99.97% # Number of insts issued each cycle (Count)
system.cpu.numIssuedDist::8                    408604      0.03%    100.00% # Number of insts issued each cycle (Count)
system.cpu.numIssuedDist::overflows                 0      0.00%    100.00% # Number of insts issued each cycle (Count)
system.cpu.numIssuedDist::min_value                 0                       # Number of insts issued each cycle (Count)
system.cpu.numIssuedDist::max_value                 8                       # Number of insts issued each cycle (Count)
system.cpu.numIssuedDist::total            1362052056                       # Number of insts issued each cycle (Count)
system.cpu.statFuBusy::No_OpClass                   0      0.00%      0.00% # attempts to use FU when none available (Count)
system.cpu.statFuBusy::IntAlu                  185523     15.09%     15.09% # attempts to use FU when none available (Count)
system.cpu.statFuBusy::IntMult                      0      0.00%     15.09% # attempts to use FU when none available (Count)
system.cpu.statFuBusy::IntDiv                       0      0.00%     15.09% # attempts to use FU when none available (Count)
system.cpu.statFuBusy::FloatAdd                     0      0.00%     15.09% # attempts to use FU when none available (Count)
system.cpu.statFuBusy::FloatCmp                     0      0.00%     15.09% # attempts to use FU when none available (Count)
system.cpu.statFuBusy::FloatCvt                     0      0.00%     15.09% # attempts to use FU when none available (Count)
system.cpu.statFuBusy::FloatMult                    0      0.00%     15.09% # attempts to use FU when none available (Count)
system.cpu.statFuBusy::FloatMultAcc                 0      0.00%     15.09% # attempts to use FU when none available (Count)
system.cpu.statFuBusy::FloatDiv                     0      0.00%     15.09% # attempts to use FU when none available (Count)
system.cpu.statFuBusy::FloatMisc                    0      0.00%     15.09% # attempts to use FU when none available (Count)
system.cpu.statFuBusy::FloatSqrt                    0      0.00%     15.09% # attempts to use FU when none available (Count)
system.cpu.statFuBusy::SimdAdd                      0      0.00%     15.09% # attempts to use FU when none available (Count)
system.cpu.statFuBusy::SimdAddAcc                   0      0.00%     15.09% # attempts to use FU when none available (Count)
system.cpu.statFuBusy::SimdAlu                      0      0.00%     15.09% # attempts to use FU when none available (Count)
system.cpu.statFuBusy::SimdCmp                      0      0.00%     15.09% # attempts to use FU when none available (Count)
system.cpu.statFuBusy::SimdCvt                      0      0.00%     15.09% # attempts to use FU when none available (Count)
system.cpu.statFuBusy::SimdMisc                     0      0.00%     15.09% # attempts to use FU when none available (Count)
system.cpu.statFuBusy::SimdMult                     0      0.00%     15.09% # attempts to use FU when none available (Count)
system.cpu.statFuBusy::SimdMultAcc                  0      0.00%     15.09% # attempts to use FU when none available (Count)
system.cpu.statFuBusy::SimdShift                    0      0.00%     15.09% # attempts to use FU when none available (Count)
system.cpu.statFuBusy::SimdShiftAcc                 0      0.00%     15.09% # attempts to use FU when none available (Count)
system.cpu.statFuBusy::SimdDiv                      0      0.00%     15.09% # attempts to use FU when none available (Count)
system.cpu.statFuBusy::SimdSqrt                     0      0.00%     15.09% # attempts to use FU when none available (Count)
system.cpu.statFuBusy::SimdFloatAdd                 0      0.00%     15.09% # attempts to use FU when none available (Count)
system.cpu.statFuBusy::SimdFloatAlu                 0      0.00%     15.09% # attempts to use FU when none available (Count)
system.cpu.statFuBusy::SimdFloatCmp                 0      0.00%     15.09% # attempts to use FU when none available (Count)
system.cpu.statFuBusy::SimdFloatCvt                 0      0.00%     15.09% # attempts to use FU when none available (Count)
system.cpu.statFuBusy::SimdFloatDiv                 0      0.00%     15.09% # attempts to use FU when none available (Count)
system.cpu.statFuBusy::SimdFloatMisc                0      0.00%     15.09% # attempts to use FU when none available (Count)
system.cpu.statFuBusy::SimdFloatMult                0      0.00%     15.09% # attempts to use FU when none available (Count)
system.cpu.statFuBusy::SimdFloatMultAcc             0      0.00%     15.09% # attempts to use FU when none available (Count)
system.cpu.statFuBusy::SimdFloatSqrt                0      0.00%     15.09% # attempts to use FU when none available (Count)
system.cpu.statFuBusy::SimdReduceAdd                0      0.00%     15.09% # attempts to use FU when none available (Count)
system.cpu.statFuBusy::SimdReduceAlu                0      0.00%     15.09% # attempts to use FU when none available (Count)
system.cpu.statFuBusy::SimdReduceCmp                0      0.00%     15.09% # attempts to use FU when none available (Count)
system.cpu.statFuBusy::SimdFloatReduceAdd            0      0.00%     15.09% # attempts to use FU when none available (Count)
system.cpu.statFuBusy::SimdFloatReduceCmp            0      0.00%     15.09% # attempts to use FU when none available (Count)
system.cpu.statFuBusy::SimdAes                      0      0.00%     15.09% # attempts to use FU when none available (Count)
system.cpu.statFuBusy::SimdAesMix                   0      0.00%     15.09% # attempts to use FU when none available (Count)
system.cpu.statFuBusy::SimdSha1Hash                 0      0.00%     15.09% # attempts to use FU when none available (Count)
system.cpu.statFuBusy::SimdSha1Hash2                0      0.00%     15.09% # attempts to use FU when none available (Count)
system.cpu.statFuBusy::SimdSha256Hash               0      0.00%     15.09% # attempts to use FU when none available (Count)
system.cpu.statFuBusy::SimdSha256Hash2              0      0.00%     15.09% # attempts to use FU when none available (Count)
system.cpu.statFuBusy::SimdShaSigma2                0      0.00%     15.09% # attempts to use FU when none available (Count)
system.cpu.statFuBusy::SimdShaSigma3                0      0.00%     15.09% # attempts to use FU when none available (Count)
system.cpu.statFuBusy::SimdPredAlu                  0      0.00%     15.09% # attempts to use FU when none available (Count)
system.cpu.statFuBusy::MemRead                 787242     64.05%     79.14% # attempts to use FU when none available (Count)
system.cpu.statFuBusy::MemWrite                256383     20.86%    100.00% # attempts to use FU when none available (Count)
system.cpu.statFuBusy::FloatMemRead                 7      0.00%    100.00% # attempts to use FU when none available (Count)
system.cpu.statFuBusy::FloatMemWrite                0      0.00%    100.00% # attempts to use FU when none available (Count)
system.cpu.statFuBusy::IprAccess                    0      0.00%    100.00% # attempts to use FU when none available (Count)
system.cpu.statFuBusy::InstPrefetch                 0      0.00%    100.00% # attempts to use FU when none available (Count)
system.cpu.statIssuedInstType_0::No_OpClass           32      0.00%      0.00% # Number of instructions issued per FU type, per thread (Count)
system.cpu.statIssuedInstType_0::IntAlu      38226601     49.51%     49.51% # Number of instructions issued per FU type, per thread (Count)
system.cpu.statIssuedInstType_0::IntMult            0      0.00%     49.51% # Number of instructions issued per FU type, per thread (Count)
system.cpu.statIssuedInstType_0::IntDiv          5864      0.01%     49.52% # Number of instructions issued per FU type, per thread (Count)
system.cpu.statIssuedInstType_0::FloatAdd            0      0.00%     49.52% # Number of instructions issued per FU type, per thread (Count)
system.cpu.statIssuedInstType_0::FloatCmp            0      0.00%     49.52% # Number of instructions issued per FU type, per thread (Count)
system.cpu.statIssuedInstType_0::FloatCvt            0      0.00%     49.52% # Number of instructions issued per FU type, per thread (Count)
system.cpu.statIssuedInstType_0::FloatMult            0      0.00%     49.52% # Number of instructions issued per FU type, per thread (Count)
system.cpu.statIssuedInstType_0::FloatMultAcc            0      0.00%     49.52% # Number of instructions issued per FU type, per thread (Count)
system.cpu.statIssuedInstType_0::FloatDiv            0      0.00%     49.52% # Number of instructions issued per FU type, per thread (Count)
system.cpu.statIssuedInstType_0::FloatMisc            0      0.00%     49.52% # Number of instructions issued per FU type, per thread (Count)
system.cpu.statIssuedInstType_0::FloatSqrt            0      0.00%     49.52% # Number of instructions issued per FU type, per thread (Count)
system.cpu.statIssuedInstType_0::SimdAdd            0      0.00%     49.52% # Number of instructions issued per FU type, per thread (Count)
system.cpu.statIssuedInstType_0::SimdAddAcc            0      0.00%     49.52% # Number of instructions issued per FU type, per thread (Count)
system.cpu.statIssuedInstType_0::SimdAlu            0      0.00%     49.52% # Number of instructions issued per FU type, per thread (Count)
system.cpu.statIssuedInstType_0::SimdCmp            0      0.00%     49.52% # Number of instructions issued per FU type, per thread (Count)
system.cpu.statIssuedInstType_0::SimdCvt            0      0.00%     49.52% # Number of instructions issued per FU type, per thread (Count)
system.cpu.statIssuedInstType_0::SimdMisc            0      0.00%     49.52% # Number of instructions issued per FU type, per thread (Count)
system.cpu.statIssuedInstType_0::SimdMult            0      0.00%     49.52% # Number of instructions issued per FU type, per thread (Count)
system.cpu.statIssuedInstType_0::SimdMultAcc            0      0.00%     49.52% # Number of instructions issued per FU type, per thread (Count)
system.cpu.statIssuedInstType_0::SimdShift            0      0.00%     49.52% # Number of instructions issued per FU type, per thread (Count)
system.cpu.statIssuedInstType_0::SimdShiftAcc            0      0.00%     49.52% # Number of instructions issued per FU type, per thread (Count)
system.cpu.statIssuedInstType_0::SimdDiv            0      0.00%     49.52% # Number of instructions issued per FU type, per thread (Count)
system.cpu.statIssuedInstType_0::SimdSqrt            0      0.00%     49.52% # Number of instructions issued per FU type, per thread (Count)
system.cpu.statIssuedInstType_0::SimdFloatAdd            0      0.00%     49.52% # Number of instructions issued per FU type, per thread (Count)
system.cpu.statIssuedInstType_0::SimdFloatAlu            0      0.00%     49.52% # Number of instructions issued per FU type, per thread (Count)
system.cpu.statIssuedInstType_0::SimdFloatCmp            0      0.00%     49.52% # Number of instructions issued per FU type, per thread (Count)
system.cpu.statIssuedInstType_0::SimdFloatCvt            0      0.00%     49.52% # Number of instructions issued per FU type, per thread (Count)
system.cpu.statIssuedInstType_0::SimdFloatDiv            0      0.00%     49.52% # Number of instructions issued per FU type, per thread (Count)
system.cpu.statIssuedInstType_0::SimdFloatMisc            0      0.00%     49.52% # Number of instructions issued per FU type, per thread (Count)
system.cpu.statIssuedInstType_0::SimdFloatMult            0      0.00%     49.52% # Number of instructions issued per FU type, per thread (Count)
system.cpu.statIssuedInstType_0::SimdFloatMultAcc            0      0.00%     49.52% # Number of instructions issued per FU type, per thread (Count)
system.cpu.statIssuedInstType_0::SimdFloatSqrt            0      0.00%     49.52% # Number of instructions issued per FU type, per thread (Count)
system.cpu.statIssuedInstType_0::SimdReduceAdd            0      0.00%     49.52% # Number of instructions issued per FU type, per thread (Count)
system.cpu.statIssuedInstType_0::SimdReduceAlu            0      0.00%     49.52% # Number of instructions issued per FU type, per thread (Count)
system.cpu.statIssuedInstType_0::SimdReduceCmp            0      0.00%     49.52% # Number of instructions issued per FU type, per thread (Count)
system.cpu.statIssuedInstType_0::SimdFloatReduceAdd            0      0.00%     49.52% # Number of instructions issued per FU type, per thread (Count)
system.cpu.statIssuedInstType_0::SimdFloatReduceCmp            0      0.00%     49.52% # Number of instructions issued per FU type, per thread (Count)
system.cpu.statIssuedInstType_0::SimdAes            0      0.00%     49.52% # Number of instructions issued per FU type, per thread (Count)
system.cpu.statIssuedInstType_0::SimdAesMix            0      0.00%     49.52% # Number of instructions issued per FU type, per thread (Count)
system.cpu.statIssuedInstType_0::SimdSha1Hash            0      0.00%     49.52% # Number of instructions issued per FU type, per thread (Count)
system.cpu.statIssuedInstType_0::SimdSha1Hash2            0      0.00%     49.52% # Number of instructions issued per FU type, per thread (Count)
system.cpu.statIssuedInstType_0::SimdSha256Hash            0      0.00%     49.52% # Number of instructions issued per FU type, per thread (Count)
system.cpu.statIssuedInstType_0::SimdSha256Hash2            0      0.00%     49.52% # Number of instructions issued per FU type, per thread (Count)
system.cpu.statIssuedInstType_0::SimdShaSigma2            0      0.00%     49.52% # Number of instructions issued per FU type, per thread (Count)
system.cpu.statIssuedInstType_0::SimdShaSigma3            0      0.00%     49.52% # Number of instructions issued per FU type, per thread (Count)
system.cpu.statIssuedInstType_0::SimdPredAlu            0      0.00%     49.52% # Number of instructions issued per FU type, per thread (Count)
system.cpu.statIssuedInstType_0::MemRead     35435366     45.90%     95.42% # Number of instructions issued per FU type, per thread (Count)
system.cpu.statIssuedInstType_0::MemWrite      3535479      4.58%    100.00% # Number of instructions issued per FU type, per thread (Count)
system.cpu.statIssuedInstType_0::FloatMemRead           32      0.00%    100.00% # Number of instructions issued per FU type, per thread (Count)
system.cpu.statIssuedInstType_0::FloatMemWrite            0      0.00%    100.00% # Number of instructions issued per FU type, per thread (Count)
system.cpu.statIssuedInstType_0::IprAccess            0      0.00%    100.00% # Number of instructions issued per FU type, per thread (Count)
system.cpu.statIssuedInstType_0::InstPrefetch            0      0.00%    100.00% # Number of instructions issued per FU type, per thread (Count)
system.cpu.statIssuedInstType_0::total       77203374                       # Number of instructions issued per FU type, per thread (Count)
system.cpu.issueRate                         0.056682                       # Inst issue rate ((Count/Cycle))
system.cpu.fuBusy                             1229155                       # FU busy when requested (Count)
system.cpu.fuBusyRate                        0.015921                       # FU busy rate (busy events/executed inst) ((Count/Count))
system.cpu.intInstQueueReads               1520607394                       # Number of integer instruction queue reads (Count)
system.cpu.intInstQueueWrites               126532965                       # Number of integer instruction queue writes (Count)
system.cpu.intInstQueueWakeupAccesses        62549833                       # Number of integer instruction queue wakeup accesses (Count)
system.cpu.fpInstQueueReads                        71                       # Number of floating instruction queue reads (Count)
system.cpu.fpInstQueueWrites                       32                       # Number of floating instruction queue writes (Count)
system.cpu.fpInstQueueWakeupAccesses               32                       # Number of floating instruction queue wakeup accesses (Count)
system.cpu.vecInstQueueReads                        0                       # Number of vector instruction queue reads (Count)
system.cpu.vecInstQueueWrites                       0                       # Number of vector instruction queue writes (Count)
system.cpu.vecInstQueueWakeupAccesses               0                       # Number of vector instruction queue wakeup accesses (Count)
system.cpu.intAluAccesses                    78432458                       # Number of integer alu accesses (Count)
system.cpu.fpAluAccesses                           39                       # Number of floating point alu accesses (Count)
system.cpu.vecAluAccesses                           0                       # Number of vector alu accesses (Count)
system.cpu.numInsts                          63013677                       # Number of executed instructions (Count)
system.cpu.numLoadInsts                      22093158                       # Number of load instructions executed (Count)
system.cpu.numSquashedInsts                   1127908                       # Number of squashed instructions skipped in execute (Count)
system.cpu.numSwp                                   0                       # Number of swp insts executed (Count)
system.cpu.numNop                                   0                       # Number of nop insts executed (Count)
system.cpu.numRefs                           25370387                       # Number of memory reference insts executed (Count)
system.cpu.numBranches                       17700115                       # Number of branches executed (Count)
system.cpu.numStoreInsts                      3277229                       # Number of stores executed (Count)
system.cpu.numRate                           0.046264                       # Inst execution rate ((Count/Cycle))
system.cpu.timesIdled                               6                       # Number of times that the entire CPU went into an idle state and unscheduled itself (Count)
system.cpu.idleCycles                             674                       # Total number of cycles that the CPU has spent unscheduled due to idling (Cycle)
system.cpu.committedInsts                    50000001                       # Number of Instructions Simulated (Count)
system.cpu.committedOps                      50000001                       # Number of Ops (including micro ops) Simulated (Count)
system.cpu.cpi                              27.241054                       # CPI: Cycles Per Instruction ((Cycle/Count))
system.cpu.totalCpi                         27.241054                       # CPI: Total CPI of All Threads ((Cycle/Count))
system.cpu.ipc                               0.036709                       # IPC: Instructions Per Cycle ((Count/Cycle))
system.cpu.totalIpc                          0.036709                       # IPC: Total IPC of All Threads ((Count/Cycle))
system.cpu.intRegfileReads                   94985393                       # Number of integer regfile reads (Count)
system.cpu.intRegfileWrites                  41955662                       # Number of integer regfile writes (Count)
system.cpu.fpRegfileReads                          32                       # Number of floating regfile reads (Count)
system.cpu.fpRegfileWrites                         32                       # Number of floating regfile writes (Count)
system.cpu.miscRegfileReads                8485126163                       # number of misc regfile reads (Count)
system.cpu.miscRegfileWrites                       57                       # number of misc regfile writes (Count)
system.cpu.lastCommitTick                681026364500                       # The last tick to commit an instruction (Count)
system.cpu.MemDepUnit__0.insertedLoads       32970789                       # Number of loads inserted to the mem dependence unit. (Count)
system.cpu.MemDepUnit__0.insertedStores       4881958                       # Number of stores inserted to the mem dependence unit. (Count)
system.cpu.MemDepUnit__0.conflictingLoads      4274876                       # Number of conflicting loads. (Count)
system.cpu.MemDepUnit__0.conflictingStores      1952601                       # Number of conflicting stores. (Count)
system.cpu.MemDepUnit__1.insertedLoads              0                       # Number of loads inserted to the mem dependence unit. (Count)
system.cpu.MemDepUnit__1.insertedStores             0                       # Number of stores inserted to the mem dependence unit. (Count)
system.cpu.MemDepUnit__1.conflictingLoads            0                       # Number of conflicting loads. (Count)
system.cpu.MemDepUnit__1.conflictingStores            0                       # Number of conflicting stores. (Count)
system.cpu.MemDepUnit__2.insertedLoads              0                       # Number of loads inserted to the mem dependence unit. (Count)
system.cpu.MemDepUnit__2.insertedStores             0                       # Number of stores inserted to the mem dependence unit. (Count)
system.cpu.MemDepUnit__2.conflictingLoads            0                       # Number of conflicting loads. (Count)
system.cpu.MemDepUnit__2.conflictingStores            0                       # Number of conflicting stores. (Count)
system.cpu.MemDepUnit__3.insertedLoads              0                       # Number of loads inserted to the mem dependence unit. (Count)
system.cpu.MemDepUnit__3.insertedStores             0                       # Number of stores inserted to the mem dependence unit. (Count)
system.cpu.MemDepUnit__3.conflictingLoads            0                       # Number of conflicting loads. (Count)
system.cpu.MemDepUnit__3.conflictingStores            0                       # Number of conflicting stores. (Count)
system.cpu.branchPred.lookups                       0                       # Number of BP lookups (Count)
system.cpu.branchPred.condPredicted                 0                       # Number of conditional branches predicted (Count)
system.cpu.branchPred.condIncorrect            862241                       # Number of conditional branches incorrect (Count)
system.cpu.branchPred.BTBLookups                    0                       # Number of BTB lookups (Count)
system.cpu.branchPred.BTBHits                       0                       # Number of BTB hits (Count)
system.cpu.branchPred.BTBHitRatio                 nan                       # BTB Hit Ratio (Ratio)
system.cpu.branchPred.RASUsed                       0                       # Number of times the RAS was used to get a target. (Count)
system.cpu.branchPred.RASIncorrect               3876                       # Number of incorrect RAS predictions. (Count)
system.cpu.branchPred.indirectLookups               0                       # Number of indirect predictor lookups. (Count)
system.cpu.branchPred.indirectHits                  0                       # Number of indirect target hits. (Count)
system.cpu.branchPred.indirectMisses                0                       # Number of indirect misses. (Count)
system.cpu.branchPred.indirectMispredicted         3876                       # Number of mispredicted indirect branches. (Count)
system.cpu.branchPred.stream_tage.coldMisses            0                       # ittage the provider component lookup hit (Count)
system.cpu.branchPred.stream_tage.capacityMisses            0                       # ittage the alternate prediction lookup hit (Count)
system.cpu.branchPred.stream_tage.compulsoryMisses            0                       # ittage the provider component pred hit (Count)
system.cpu.branchPred.stream_tage.providerTableDist::samples     53659807                       # the distribution of provider component (Count)
system.cpu.branchPred.stream_tage.providerTableDist::mean     4.157384                       # the distribution of provider component (Count)
system.cpu.branchPred.stream_tage.providerTableDist::stdev     3.476095                       # the distribution of provider component (Count)
system.cpu.branchPred.stream_tage.providerTableDist::underflows            0      0.00%      0.00% # the distribution of provider component (Count)
system.cpu.branchPred.stream_tage.providerTableDist::0     13049744     24.32%     24.32% # the distribution of provider component (Count)
system.cpu.branchPred.stream_tage.providerTableDist::1      3978015      7.41%     31.73% # the distribution of provider component (Count)
system.cpu.branchPred.stream_tage.providerTableDist::2      3105816      5.79%     37.52% # the distribution of provider component (Count)
system.cpu.branchPred.stream_tage.providerTableDist::3      5853705     10.91%     48.43% # the distribution of provider component (Count)
system.cpu.branchPred.stream_tage.providerTableDist::4      3891965      7.25%     55.68% # the distribution of provider component (Count)
system.cpu.branchPred.stream_tage.providerTableDist::5      3473018      6.47%     62.16% # the distribution of provider component (Count)
system.cpu.branchPred.stream_tage.providerTableDist::6      4092116      7.63%     69.78% # the distribution of provider component (Count)
system.cpu.branchPred.stream_tage.providerTableDist::7      5108191      9.52%     79.30% # the distribution of provider component (Count)
system.cpu.branchPred.stream_tage.providerTableDist::8      4709560      8.78%     88.08% # the distribution of provider component (Count)
system.cpu.branchPred.stream_tage.providerTableDist::9      2701416      5.03%     93.11% # the distribution of provider component (Count)
system.cpu.branchPred.stream_tage.providerTableDist::10      2022038      3.77%     96.88% # the distribution of provider component (Count)
system.cpu.branchPred.stream_tage.providerTableDist::11       744856      1.39%     98.27% # the distribution of provider component (Count)
system.cpu.branchPred.stream_tage.providerTableDist::12       526304      0.98%     99.25% # the distribution of provider component (Count)
system.cpu.branchPred.stream_tage.providerTableDist::13       270865      0.50%     99.75% # the distribution of provider component (Count)
system.cpu.branchPred.stream_tage.providerTableDist::14       132198      0.25%    100.00% # the distribution of provider component (Count)
system.cpu.branchPred.stream_tage.providerTableDist::15            0      0.00%    100.00% # the distribution of provider component (Count)
system.cpu.branchPred.stream_tage.providerTableDist::16            0      0.00%    100.00% # the distribution of provider component (Count)
system.cpu.branchPred.stream_tage.providerTableDist::17            0      0.00%    100.00% # the distribution of provider component (Count)
system.cpu.branchPred.stream_tage.providerTableDist::18            0      0.00%    100.00% # the distribution of provider component (Count)
system.cpu.branchPred.stream_tage.providerTableDist::19            0      0.00%    100.00% # the distribution of provider component (Count)
system.cpu.branchPred.stream_tage.providerTableDist::20            0      0.00%    100.00% # the distribution of provider component (Count)
system.cpu.branchPred.stream_tage.providerTableDist::21            0      0.00%    100.00% # the distribution of provider component (Count)
system.cpu.branchPred.stream_tage.providerTableDist::overflows            0      0.00%    100.00% # the distribution of provider component (Count)
system.cpu.branchPred.stream_tage.providerTableDist::min_value            0                       # the distribution of provider component (Count)
system.cpu.branchPred.stream_tage.providerTableDist::max_value           14                       # the distribution of provider component (Count)
system.cpu.branchPred.stream_tage.providerTableDist::total     53659807                       # the distribution of provider component (Count)
system.cpu.commit.commitSquashedInsts        38704430                       # The number of squashed insts skipped by commit (Count)
system.cpu.commit.commitNonSpecStalls              33                       # The number of times commit has been forced to stall to communicate backwards (Count)
system.cpu.commit.branchMispredicts            866118                       # The number of times a branch was mispredicted (Count)
system.cpu.commit.numCommittedDist::samples   1356612763                       # Number of insts commited each cycle (Count)
system.cpu.commit.numCommittedDist::mean     0.036857                       # Number of insts commited each cycle (Count)
system.cpu.commit.numCommittedDist::stdev     0.423780                       # Number of insts commited each cycle (Count)
system.cpu.commit.numCommittedDist::underflows            0      0.00%      0.00% # Number of insts commited each cycle (Count)
system.cpu.commit.numCommittedDist::0      1337978377     98.63%     98.63% # Number of insts commited each cycle (Count)
system.cpu.commit.numCommittedDist::1         8630091      0.64%     99.26% # Number of insts commited each cycle (Count)
system.cpu.commit.numCommittedDist::2         4850605      0.36%     99.62% # Number of insts commited each cycle (Count)
system.cpu.commit.numCommittedDist::3         1084101      0.08%     99.70% # Number of insts commited each cycle (Count)
system.cpu.commit.numCommittedDist::4          596228      0.04%     99.74% # Number of insts commited each cycle (Count)
system.cpu.commit.numCommittedDist::5          236727      0.02%     99.76% # Number of insts commited each cycle (Count)
system.cpu.commit.numCommittedDist::6          381436      0.03%     99.79% # Number of insts commited each cycle (Count)
system.cpu.commit.numCommittedDist::7          282350      0.02%     99.81% # Number of insts commited each cycle (Count)
system.cpu.commit.numCommittedDist::8         2572848      0.19%    100.00% # Number of insts commited each cycle (Count)
system.cpu.commit.numCommittedDist::overflows            0      0.00%    100.00% # Number of insts commited each cycle (Count)
system.cpu.commit.numCommittedDist::min_value            0                       # Number of insts commited each cycle (Count)
system.cpu.commit.numCommittedDist::max_value            8                       # Number of insts commited each cycle (Count)
system.cpu.commit.numCommittedDist::total   1356612763                       # Number of insts commited each cycle (Count)
system.cpu.commit.instsCommitted             50000001                       # Number of instructions committed (Count)
system.cpu.commit.opsCommitted               50000001                       # Number of ops (including micro ops) committed (Count)
system.cpu.commit.memRefs                    21550337                       # Number of memory references committed (Count)
system.cpu.commit.loads                      18681995                       # Number of loads committed (Count)
system.cpu.commit.amos                              0                       # Number of atomic instructions committed (Count)
system.cpu.commit.membars                           0                       # Number of memory barriers committed (Count)
system.cpu.commit.branches                   14011219                       # Number of branches committed (Count)
system.cpu.commit.vectorInstructions                0                       # Number of committed Vector instructions. (Count)
system.cpu.commit.floating                         32                       # Number of committed floating point instructions. (Count)
system.cpu.commit.integer                    49296041                       # Number of committed integer instructions. (Count)
system.cpu.commit.functionCalls                 74701                       # Number of function calls committed. (Count)
system.cpu.commit.committedInstType_0::No_OpClass           32      0.00%      0.00% # Class of committed instruction (Count)
system.cpu.commit.committedInstType_0::IntAlu     28446483     56.89%     56.89% # Class of committed instruction (Count)
system.cpu.commit.committedInstType_0::IntMult            0      0.00%     56.89% # Class of committed instruction (Count)
system.cpu.commit.committedInstType_0::IntDiv         3149      0.01%     56.90% # Class of committed instruction (Count)
system.cpu.commit.committedInstType_0::FloatAdd            0      0.00%     56.90% # Class of committed instruction (Count)
system.cpu.commit.committedInstType_0::FloatCmp            0      0.00%     56.90% # Class of committed instruction (Count)
system.cpu.commit.committedInstType_0::FloatCvt            0      0.00%     56.90% # Class of committed instruction (Count)
system.cpu.commit.committedInstType_0::FloatMult            0      0.00%     56.90% # Class of committed instruction (Count)
system.cpu.commit.committedInstType_0::FloatMultAcc            0      0.00%     56.90% # Class of committed instruction (Count)
system.cpu.commit.committedInstType_0::FloatDiv            0      0.00%     56.90% # Class of committed instruction (Count)
system.cpu.commit.committedInstType_0::FloatMisc            0      0.00%     56.90% # Class of committed instruction (Count)
system.cpu.commit.committedInstType_0::FloatSqrt            0      0.00%     56.90% # Class of committed instruction (Count)
system.cpu.commit.committedInstType_0::SimdAdd            0      0.00%     56.90% # Class of committed instruction (Count)
system.cpu.commit.committedInstType_0::SimdAddAcc            0      0.00%     56.90% # Class of committed instruction (Count)
system.cpu.commit.committedInstType_0::SimdAlu            0      0.00%     56.90% # Class of committed instruction (Count)
system.cpu.commit.committedInstType_0::SimdCmp            0      0.00%     56.90% # Class of committed instruction (Count)
system.cpu.commit.committedInstType_0::SimdCvt            0      0.00%     56.90% # Class of committed instruction (Count)
system.cpu.commit.committedInstType_0::SimdMisc            0      0.00%     56.90% # Class of committed instruction (Count)
system.cpu.commit.committedInstType_0::SimdMult            0      0.00%     56.90% # Class of committed instruction (Count)
system.cpu.commit.committedInstType_0::SimdMultAcc            0      0.00%     56.90% # Class of committed instruction (Count)
system.cpu.commit.committedInstType_0::SimdShift            0      0.00%     56.90% # Class of committed instruction (Count)
system.cpu.commit.committedInstType_0::SimdShiftAcc            0      0.00%     56.90% # Class of committed instruction (Count)
system.cpu.commit.committedInstType_0::SimdDiv            0      0.00%     56.90% # Class of committed instruction (Count)
system.cpu.commit.committedInstType_0::SimdSqrt            0      0.00%     56.90% # Class of committed instruction (Count)
system.cpu.commit.committedInstType_0::SimdFloatAdd            0      0.00%     56.90% # Class of committed instruction (Count)
system.cpu.commit.committedInstType_0::SimdFloatAlu            0      0.00%     56.90% # Class of committed instruction (Count)
system.cpu.commit.committedInstType_0::SimdFloatCmp            0      0.00%     56.90% # Class of committed instruction (Count)
system.cpu.commit.committedInstType_0::SimdFloatCvt            0      0.00%     56.90% # Class of committed instruction (Count)
system.cpu.commit.committedInstType_0::SimdFloatDiv            0      0.00%     56.90% # Class of committed instruction (Count)
system.cpu.commit.committedInstType_0::SimdFloatMisc            0      0.00%     56.90% # Class of committed instruction (Count)
system.cpu.commit.committedInstType_0::SimdFloatMult            0      0.00%     56.90% # Class of committed instruction (Count)
system.cpu.commit.committedInstType_0::SimdFloatMultAcc            0      0.00%     56.90% # Class of committed instruction (Count)
system.cpu.commit.committedInstType_0::SimdFloatSqrt            0      0.00%     56.90% # Class of committed instruction (Count)
system.cpu.commit.committedInstType_0::SimdReduceAdd            0      0.00%     56.90% # Class of committed instruction (Count)
system.cpu.commit.committedInstType_0::SimdReduceAlu            0      0.00%     56.90% # Class of committed instruction (Count)
system.cpu.commit.committedInstType_0::SimdReduceCmp            0      0.00%     56.90% # Class of committed instruction (Count)
system.cpu.commit.committedInstType_0::SimdFloatReduceAdd            0      0.00%     56.90% # Class of committed instruction (Count)
system.cpu.commit.committedInstType_0::SimdFloatReduceCmp            0      0.00%     56.90% # Class of committed instruction (Count)
system.cpu.commit.committedInstType_0::SimdAes            0      0.00%     56.90% # Class of committed instruction (Count)
system.cpu.commit.committedInstType_0::SimdAesMix            0      0.00%     56.90% # Class of committed instruction (Count)
system.cpu.commit.committedInstType_0::SimdSha1Hash            0      0.00%     56.90% # Class of committed instruction (Count)
system.cpu.commit.committedInstType_0::SimdSha1Hash2            0      0.00%     56.90% # Class of committed instruction (Count)
system.cpu.commit.committedInstType_0::SimdSha256Hash            0      0.00%     56.90% # Class of committed instruction (Count)
system.cpu.commit.committedInstType_0::SimdSha256Hash2            0      0.00%     56.90% # Class of committed instruction (Count)
system.cpu.commit.committedInstType_0::SimdShaSigma2            0      0.00%     56.90% # Class of committed instruction (Count)
system.cpu.commit.committedInstType_0::SimdShaSigma3            0      0.00%     56.90% # Class of committed instruction (Count)
system.cpu.commit.committedInstType_0::SimdPredAlu            0      0.00%     56.90% # Class of committed instruction (Count)
system.cpu.commit.committedInstType_0::MemRead     18681963     37.36%     94.26% # Class of committed instruction (Count)
system.cpu.commit.committedInstType_0::MemWrite      2868342      5.74%    100.00% # Class of committed instruction (Count)
system.cpu.commit.committedInstType_0::FloatMemRead           32      0.00%    100.00% # Class of committed instruction (Count)
system.cpu.commit.committedInstType_0::FloatMemWrite            0      0.00%    100.00% # Class of committed instruction (Count)
system.cpu.commit.committedInstType_0::IprAccess            0      0.00%    100.00% # Class of committed instruction (Count)
system.cpu.commit.committedInstType_0::InstPrefetch            0      0.00%    100.00% # Class of committed instruction (Count)
system.cpu.commit.committedInstType_0::total     50000001                       # Class of committed instruction (Count)
system.cpu.commit.commitEligibleSamples       2572848                       # number cycles where commit BW limit reached (Cycle)
system.cpu.dcache.demandHits::cpu.data       14955594                       # number of demand (read+write) hits (Count)
system.cpu.dcache.demandHits::total          14955594                       # number of demand (read+write) hits (Count)
system.cpu.dcache.overallHits::cpu.data      14955594                       # number of overall hits (Count)
system.cpu.dcache.overallHits::total         14955594                       # number of overall hits (Count)
system.cpu.dcache.demandMisses::cpu.data      9903152                       # number of demand (read+write) misses (Count)
system.cpu.dcache.demandMisses::total         9903152                       # number of demand (read+write) misses (Count)
system.cpu.dcache.overallMisses::cpu.data      9903152                       # number of overall misses (Count)
system.cpu.dcache.overallMisses::total        9903152                       # number of overall misses (Count)
system.cpu.dcache.demandMissLatency::cpu.data 681918608500                       # number of demand (read+write) miss ticks (Tick)
system.cpu.dcache.demandMissLatency::total 681918608500                       # number of demand (read+write) miss ticks (Tick)
system.cpu.dcache.overallMissLatency::cpu.data 681918608500                       # number of overall miss ticks (Tick)
system.cpu.dcache.overallMissLatency::total 681918608500                       # number of overall miss ticks (Tick)
system.cpu.dcache.demandAccesses::cpu.data     24858746                       # number of demand (read+write) accesses (Count)
system.cpu.dcache.demandAccesses::total      24858746                       # number of demand (read+write) accesses (Count)
system.cpu.dcache.overallAccesses::cpu.data     24858746                       # number of overall (read+write) accesses (Count)
system.cpu.dcache.overallAccesses::total     24858746                       # number of overall (read+write) accesses (Count)
system.cpu.dcache.demandMissRate::cpu.data     0.398377                       # miss rate for demand accesses (Ratio)
system.cpu.dcache.demandMissRate::total      0.398377                       # miss rate for demand accesses (Ratio)
system.cpu.dcache.overallMissRate::cpu.data     0.398377                       # miss rate for overall accesses (Ratio)
system.cpu.dcache.overallMissRate::total     0.398377                       # miss rate for overall accesses (Ratio)
system.cpu.dcache.demandAvgMissLatency::cpu.data 68858.744014                       # average overall miss latency in ticks ((Tick/Count))
system.cpu.dcache.demandAvgMissLatency::total 68858.744014                       # average overall miss latency in ticks ((Tick/Count))
system.cpu.dcache.overallAvgMissLatency::cpu.data 68858.744014                       # average overall miss latency ((Tick/Count))
system.cpu.dcache.overallAvgMissLatency::total 68858.744014                       # average overall miss latency ((Tick/Count))
system.cpu.dcache.blockedCycles::no_mshrs            0                       # number of cycles access was blocked (Cycle)
system.cpu.dcache.blockedCycles::no_targets          145                       # number of cycles access was blocked (Cycle)
system.cpu.dcache.blockedCauses::no_mshrs            0                       # number of times access was blocked (Count)
system.cpu.dcache.blockedCauses::no_targets            3                       # number of times access was blocked (Count)
system.cpu.dcache.avgBlocked::no_mshrs            nan                       # average number of cycles each access was blocked ((Cycle/Count))
system.cpu.dcache.avgBlocked::no_targets    48.333333                       # average number of cycles each access was blocked ((Cycle/Count))
system.cpu.dcache.writebacks::writebacks      1798916                       # number of writebacks (Count)
system.cpu.dcache.writebacks::total           1798916                       # number of writebacks (Count)
system.cpu.dcache.demandMshrHits::cpu.data      4636391                       # number of demand (read+write) MSHR hits (Count)
system.cpu.dcache.demandMshrHits::total       4636391                       # number of demand (read+write) MSHR hits (Count)
system.cpu.dcache.overallMshrHits::cpu.data      4636391                       # number of overall MSHR hits (Count)
system.cpu.dcache.overallMshrHits::total      4636391                       # number of overall MSHR hits (Count)
system.cpu.dcache.demandMshrMisses::cpu.data      5266761                       # number of demand (read+write) MSHR misses (Count)
system.cpu.dcache.demandMshrMisses::total      5266761                       # number of demand (read+write) MSHR misses (Count)
system.cpu.dcache.overallMshrMisses::cpu.data      5266761                       # number of overall MSHR misses (Count)
system.cpu.dcache.overallMshrMisses::total      5266761                       # number of overall MSHR misses (Count)
system.cpu.dcache.overallMshrUncacheable::cpu.data            2                       # number of overall MSHR uncacheable misses (Count)
system.cpu.dcache.overallMshrUncacheable::total            2                       # number of overall MSHR uncacheable misses (Count)
system.cpu.dcache.demandMshrMissLatency::cpu.data 345178815500                       # number of demand (read+write) MSHR miss ticks (Tick)
system.cpu.dcache.demandMshrMissLatency::total 345178815500                       # number of demand (read+write) MSHR miss ticks (Tick)
system.cpu.dcache.overallMshrMissLatency::cpu.data 345178815500                       # number of overall MSHR miss ticks (Tick)
system.cpu.dcache.overallMshrMissLatency::total 345178815500                       # number of overall MSHR miss ticks (Tick)
system.cpu.dcache.demandMshrMissRate::cpu.data     0.211868                       # mshr miss ratio for demand accesses (Ratio)
system.cpu.dcache.demandMshrMissRate::total     0.211868                       # mshr miss ratio for demand accesses (Ratio)
system.cpu.dcache.overallMshrMissRate::cpu.data     0.211868                       # mshr miss ratio for overall accesses (Ratio)
system.cpu.dcache.overallMshrMissRate::total     0.211868                       # mshr miss ratio for overall accesses (Ratio)
system.cpu.dcache.demandAvgMshrMissLatency::cpu.data 65539.107527                       # average overall mshr miss latency ((Tick/Count))
system.cpu.dcache.demandAvgMshrMissLatency::total 65539.107527                       # average overall mshr miss latency ((Tick/Count))
system.cpu.dcache.overallAvgMshrMissLatency::cpu.data 65539.107527                       # average overall mshr miss latency ((Tick/Count))
system.cpu.dcache.overallAvgMshrMissLatency::total 65539.107527                       # average overall mshr miss latency ((Tick/Count))
system.cpu.dcache.replacements                5264713                       # number of replacements (Count)
system.cpu.dcache.ReadReq.hits::cpu.data     12210667                       # number of ReadReq hits (Count)
system.cpu.dcache.ReadReq.hits::total        12210667                       # number of ReadReq hits (Count)
system.cpu.dcache.ReadReq.misses::cpu.data      9779739                       # number of ReadReq misses (Count)
system.cpu.dcache.ReadReq.misses::total       9779739                       # number of ReadReq misses (Count)
system.cpu.dcache.ReadReq.missLatency::cpu.data 675072386500                       # number of ReadReq miss ticks (Tick)
system.cpu.dcache.ReadReq.missLatency::total 675072386500                       # number of ReadReq miss ticks (Tick)
system.cpu.dcache.ReadReq.accesses::cpu.data     21990406                       # number of ReadReq accesses(hits+misses) (Count)
system.cpu.dcache.ReadReq.accesses::total     21990406                       # number of ReadReq accesses(hits+misses) (Count)
system.cpu.dcache.ReadReq.missRate::cpu.data     0.444728                       # miss rate for ReadReq accesses (Ratio)
system.cpu.dcache.ReadReq.missRate::total     0.444728                       # miss rate for ReadReq accesses (Ratio)
system.cpu.dcache.ReadReq.avgMissLatency::cpu.data 69027.648539                       # average ReadReq miss latency ((Tick/Count))
system.cpu.dcache.ReadReq.avgMissLatency::total 69027.648539                       # average ReadReq miss latency ((Tick/Count))
system.cpu.dcache.ReadReq.mshrHits::cpu.data      4623314                       # number of ReadReq MSHR hits (Count)
system.cpu.dcache.ReadReq.mshrHits::total      4623314                       # number of ReadReq MSHR hits (Count)
system.cpu.dcache.ReadReq.mshrMisses::cpu.data      5156425                       # number of ReadReq MSHR misses (Count)
system.cpu.dcache.ReadReq.mshrMisses::total      5156425                       # number of ReadReq MSHR misses (Count)
system.cpu.dcache.ReadReq.mshrMissLatency::cpu.data 338505997000                       # number of ReadReq MSHR miss ticks (Tick)
system.cpu.dcache.ReadReq.mshrMissLatency::total 338505997000                       # number of ReadReq MSHR miss ticks (Tick)
system.cpu.dcache.ReadReq.mshrMissRate::cpu.data     0.234485                       # mshr miss rate for ReadReq accesses (Ratio)
system.cpu.dcache.ReadReq.mshrMissRate::total     0.234485                       # mshr miss rate for ReadReq accesses (Ratio)
system.cpu.dcache.ReadReq.avgMshrMissLatency::cpu.data 65647.419869                       # average ReadReq mshr miss latency ((Tick/Count))
system.cpu.dcache.ReadReq.avgMshrMissLatency::total 65647.419869                       # average ReadReq mshr miss latency ((Tick/Count))
system.cpu.dcache.WriteReq.hits::cpu.data      2744927                       # number of WriteReq hits (Count)
system.cpu.dcache.WriteReq.hits::total        2744927                       # number of WriteReq hits (Count)
system.cpu.dcache.WriteReq.misses::cpu.data       123413                       # number of WriteReq misses (Count)
system.cpu.dcache.WriteReq.misses::total       123413                       # number of WriteReq misses (Count)
system.cpu.dcache.WriteReq.missLatency::cpu.data   6846222000                       # number of WriteReq miss ticks (Tick)
system.cpu.dcache.WriteReq.missLatency::total   6846222000                       # number of WriteReq miss ticks (Tick)
system.cpu.dcache.WriteReq.accesses::cpu.data      2868340                       # number of WriteReq accesses(hits+misses) (Count)
system.cpu.dcache.WriteReq.accesses::total      2868340                       # number of WriteReq accesses(hits+misses) (Count)
system.cpu.dcache.WriteReq.missRate::cpu.data     0.043026                       # miss rate for WriteReq accesses (Ratio)
system.cpu.dcache.WriteReq.missRate::total     0.043026                       # miss rate for WriteReq accesses (Ratio)
system.cpu.dcache.WriteReq.avgMissLatency::cpu.data 55474.074854                       # average WriteReq miss latency ((Tick/Count))
system.cpu.dcache.WriteReq.avgMissLatency::total 55474.074854                       # average WriteReq miss latency ((Tick/Count))
system.cpu.dcache.WriteReq.mshrHits::cpu.data        13077                       # number of WriteReq MSHR hits (Count)
system.cpu.dcache.WriteReq.mshrHits::total        13077                       # number of WriteReq MSHR hits (Count)
system.cpu.dcache.WriteReq.mshrMisses::cpu.data       110336                       # number of WriteReq MSHR misses (Count)
system.cpu.dcache.WriteReq.mshrMisses::total       110336                       # number of WriteReq MSHR misses (Count)
system.cpu.dcache.WriteReq.mshrUncacheable::cpu.data            2                       # number of WriteReq MSHR uncacheable (Count)
system.cpu.dcache.WriteReq.mshrUncacheable::total            2                       # number of WriteReq MSHR uncacheable (Count)
system.cpu.dcache.WriteReq.mshrMissLatency::cpu.data   6672818500                       # number of WriteReq MSHR miss ticks (Tick)
system.cpu.dcache.WriteReq.mshrMissLatency::total   6672818500                       # number of WriteReq MSHR miss ticks (Tick)
system.cpu.dcache.WriteReq.mshrMissRate::cpu.data     0.038467                       # mshr miss rate for WriteReq accesses (Ratio)
system.cpu.dcache.WriteReq.mshrMissRate::total     0.038467                       # mshr miss rate for WriteReq accesses (Ratio)
system.cpu.dcache.WriteReq.avgMshrMissLatency::cpu.data 60477.255837                       # average WriteReq mshr miss latency ((Tick/Count))
system.cpu.dcache.WriteReq.avgMshrMissLatency::total 60477.255837                       # average WriteReq mshr miss latency ((Tick/Count))
system.cpu.dcache.power_state.pwrStateResidencyTicks::UNDEFINED 681026364500                       # Cumulative time (in ticks) in various power states (Tick)
system.cpu.dcache.tags.tagsInUse          2047.509145                       # Average ticks per tags in use ((Tick/Count))
system.cpu.dcache.tags.totalRefs             20207610                       # Total number of references to valid blocks. (Count)
system.cpu.dcache.tags.sampledRefs            5264713                       # Sample count of references to valid blocks. (Count)
system.cpu.dcache.tags.avgRefs               3.838312                       # Average number of references to valid blocks. ((Count/Count))
system.cpu.dcache.tags.warmupTick              153500                       # The tick when the warmup percentage was hit. (Tick)
system.cpu.dcache.tags.occupancies::cpu.data  2047.509145                       # Average occupied blocks per tick, per requestor ((Count/Tick))
system.cpu.dcache.tags.avgOccs::cpu.data     0.999760                       # Average percentage of cache occupancy ((Ratio/Tick))
system.cpu.dcache.tags.avgOccs::total        0.999760                       # Average percentage of cache occupancy ((Ratio/Tick))
system.cpu.dcache.tags.occupanciesTaskId::1024         2048                       # Occupied blocks per task id (Count)
system.cpu.dcache.tags.ageTaskId_1024::0           79                       # Occupied blocks per task id, per block age (Count)
system.cpu.dcache.tags.ageTaskId_1024::1          572                       # Occupied blocks per task id, per block age (Count)
system.cpu.dcache.tags.ageTaskId_1024::2         1387                       # Occupied blocks per task id, per block age (Count)
system.cpu.dcache.tags.ageTaskId_1024::3           10                       # Occupied blocks per task id, per block age (Count)
system.cpu.dcache.tags.ratioOccsTaskId::1024            1                       # Ratio of occupied blocks and all blocks, per task id (Ratio)
system.cpu.dcache.tags.tagAccesses          204136729                       # Number of tag accesses (Count)
system.cpu.dcache.tags.dataAccesses         204136729                       # Number of data accesses (Count)
system.cpu.dcache.tags.power_state.pwrStateResidencyTicks::UNDEFINED 681026364500                       # Cumulative time (in ticks) in various power states (Tick)
system.cpu.decode.idleCycles                  3886666                       # Number of cycles decode is idle (Cycle)
system.cpu.decode.blockedCycles            1341895992                       # Number of cycles decode is blocked (Cycle)
system.cpu.decode.runCycles                  11097365                       # Number of cycles decode is running (Cycle)
system.cpu.decode.unblockCycles               4297547                       # Number of cycles decode is unblocking (Cycle)
system.cpu.decode.squashCycles                 874486                       # Number of cycles decode is squashing (Cycle)
system.cpu.decode.branchResolved             13149802                       # Number of times decode resolved a branch (Count)
system.cpu.decode.branchMispred                   267                       # Number of times decode detected a branch misprediction (Count)
system.cpu.decode.decodedInsts               98127570                       # Number of instructions handled by decode (Count)
system.cpu.decode.squashedInsts                  1404                       # Number of squashed instructions handled by decode (Count)
system.cpu.dtb_walker_cache.demandHits::cpu.mmu.dtb.walker     24628628                       # number of demand (read+write) hits (Count)
system.cpu.dtb_walker_cache.demandHits::total     24628628                       # number of demand (read+write) hits (Count)
system.cpu.dtb_walker_cache.overallHits::cpu.mmu.dtb.walker     24628628                       # number of overall hits (Count)
system.cpu.dtb_walker_cache.overallHits::total     24628628                       # number of overall hits (Count)
system.cpu.dtb_walker_cache.demandMisses::cpu.mmu.dtb.walker      8133135                       # number of demand (read+write) misses (Count)
system.cpu.dtb_walker_cache.demandMisses::total      8133135                       # number of demand (read+write) misses (Count)
system.cpu.dtb_walker_cache.overallMisses::cpu.mmu.dtb.walker      8133135                       # number of overall misses (Count)
system.cpu.dtb_walker_cache.overallMisses::total      8133135                       # number of overall misses (Count)
system.cpu.dtb_walker_cache.demandMissLatency::cpu.mmu.dtb.walker 565006816000                       # number of demand (read+write) miss ticks (Tick)
system.cpu.dtb_walker_cache.demandMissLatency::total 565006816000                       # number of demand (read+write) miss ticks (Tick)
system.cpu.dtb_walker_cache.overallMissLatency::cpu.mmu.dtb.walker 565006816000                       # number of overall miss ticks (Tick)
system.cpu.dtb_walker_cache.overallMissLatency::total 565006816000                       # number of overall miss ticks (Tick)
system.cpu.dtb_walker_cache.demandAccesses::cpu.mmu.dtb.walker     32761763                       # number of demand (read+write) accesses (Count)
system.cpu.dtb_walker_cache.demandAccesses::total     32761763                       # number of demand (read+write) accesses (Count)
system.cpu.dtb_walker_cache.overallAccesses::cpu.mmu.dtb.walker     32761763                       # number of overall (read+write) accesses (Count)
system.cpu.dtb_walker_cache.overallAccesses::total     32761763                       # number of overall (read+write) accesses (Count)
system.cpu.dtb_walker_cache.demandMissRate::cpu.mmu.dtb.walker     0.248251                       # miss rate for demand accesses (Ratio)
system.cpu.dtb_walker_cache.demandMissRate::total     0.248251                       # miss rate for demand accesses (Ratio)
system.cpu.dtb_walker_cache.overallMissRate::cpu.mmu.dtb.walker     0.248251                       # miss rate for overall accesses (Ratio)
system.cpu.dtb_walker_cache.overallMissRate::total     0.248251                       # miss rate for overall accesses (Ratio)
system.cpu.dtb_walker_cache.demandAvgMissLatency::cpu.mmu.dtb.walker 69469.745184                       # average overall miss latency in ticks ((Tick/Count))
system.cpu.dtb_walker_cache.demandAvgMissLatency::total 69469.745184                       # average overall miss latency in ticks ((Tick/Count))
system.cpu.dtb_walker_cache.overallAvgMissLatency::cpu.mmu.dtb.walker 69469.745184                       # average overall miss latency ((Tick/Count))
system.cpu.dtb_walker_cache.overallAvgMissLatency::total 69469.745184                       # average overall miss latency ((Tick/Count))
system.cpu.dtb_walker_cache.blockedCycles::no_mshrs            0                       # number of cycles access was blocked (Cycle)
system.cpu.dtb_walker_cache.blockedCycles::no_targets            0                       # number of cycles access was blocked (Cycle)
system.cpu.dtb_walker_cache.blockedCauses::no_mshrs            0                       # number of times access was blocked (Count)
system.cpu.dtb_walker_cache.blockedCauses::no_targets            0                       # number of times access was blocked (Count)
system.cpu.dtb_walker_cache.avgBlocked::no_mshrs          nan                       # average number of cycles each access was blocked ((Cycle/Count))
system.cpu.dtb_walker_cache.avgBlocked::no_targets          nan                       # average number of cycles each access was blocked ((Cycle/Count))
system.cpu.dtb_walker_cache.demandMshrMisses::cpu.mmu.dtb.walker      8133135                       # number of demand (read+write) MSHR misses (Count)
system.cpu.dtb_walker_cache.demandMshrMisses::total      8133135                       # number of demand (read+write) MSHR misses (Count)
system.cpu.dtb_walker_cache.overallMshrMisses::cpu.mmu.dtb.walker      8133135                       # number of overall MSHR misses (Count)
system.cpu.dtb_walker_cache.overallMshrMisses::total      8133135                       # number of overall MSHR misses (Count)
system.cpu.dtb_walker_cache.demandMshrMissLatency::cpu.mmu.dtb.walker 556873681000                       # number of demand (read+write) MSHR miss ticks (Tick)
system.cpu.dtb_walker_cache.demandMshrMissLatency::total 556873681000                       # number of demand (read+write) MSHR miss ticks (Tick)
system.cpu.dtb_walker_cache.overallMshrMissLatency::cpu.mmu.dtb.walker 556873681000                       # number of overall MSHR miss ticks (Tick)
system.cpu.dtb_walker_cache.overallMshrMissLatency::total 556873681000                       # number of overall MSHR miss ticks (Tick)
system.cpu.dtb_walker_cache.demandMshrMissRate::cpu.mmu.dtb.walker     0.248251                       # mshr miss ratio for demand accesses (Ratio)
system.cpu.dtb_walker_cache.demandMshrMissRate::total     0.248251                       # mshr miss ratio for demand accesses (Ratio)
system.cpu.dtb_walker_cache.overallMshrMissRate::cpu.mmu.dtb.walker     0.248251                       # mshr miss ratio for overall accesses (Ratio)
system.cpu.dtb_walker_cache.overallMshrMissRate::total     0.248251                       # mshr miss ratio for overall accesses (Ratio)
system.cpu.dtb_walker_cache.demandAvgMshrMissLatency::cpu.mmu.dtb.walker 68469.745184                       # average overall mshr miss latency ((Tick/Count))
system.cpu.dtb_walker_cache.demandAvgMshrMissLatency::total 68469.745184                       # average overall mshr miss latency ((Tick/Count))
system.cpu.dtb_walker_cache.overallAvgMshrMissLatency::cpu.mmu.dtb.walker 68469.745184                       # average overall mshr miss latency ((Tick/Count))
system.cpu.dtb_walker_cache.overallAvgMshrMissLatency::total 68469.745184                       # average overall mshr miss latency ((Tick/Count))
system.cpu.dtb_walker_cache.replacements      8133119                       # number of replacements (Count)
system.cpu.dtb_walker_cache.ReadReq.hits::cpu.mmu.dtb.walker     24628628                       # number of ReadReq hits (Count)
system.cpu.dtb_walker_cache.ReadReq.hits::total     24628628                       # number of ReadReq hits (Count)
system.cpu.dtb_walker_cache.ReadReq.misses::cpu.mmu.dtb.walker      8133135                       # number of ReadReq misses (Count)
system.cpu.dtb_walker_cache.ReadReq.misses::total      8133135                       # number of ReadReq misses (Count)
system.cpu.dtb_walker_cache.ReadReq.missLatency::cpu.mmu.dtb.walker 565006816000                       # number of ReadReq miss ticks (Tick)
system.cpu.dtb_walker_cache.ReadReq.missLatency::total 565006816000                       # number of ReadReq miss ticks (Tick)
system.cpu.dtb_walker_cache.ReadReq.accesses::cpu.mmu.dtb.walker     32761763                       # number of ReadReq accesses(hits+misses) (Count)
system.cpu.dtb_walker_cache.ReadReq.accesses::total     32761763                       # number of ReadReq accesses(hits+misses) (Count)
system.cpu.dtb_walker_cache.ReadReq.missRate::cpu.mmu.dtb.walker     0.248251                       # miss rate for ReadReq accesses (Ratio)
system.cpu.dtb_walker_cache.ReadReq.missRate::total     0.248251                       # miss rate for ReadReq accesses (Ratio)
system.cpu.dtb_walker_cache.ReadReq.avgMissLatency::cpu.mmu.dtb.walker 69469.745184                       # average ReadReq miss latency ((Tick/Count))
system.cpu.dtb_walker_cache.ReadReq.avgMissLatency::total 69469.745184                       # average ReadReq miss latency ((Tick/Count))
system.cpu.dtb_walker_cache.ReadReq.mshrMisses::cpu.mmu.dtb.walker      8133135                       # number of ReadReq MSHR misses (Count)
system.cpu.dtb_walker_cache.ReadReq.mshrMisses::total      8133135                       # number of ReadReq MSHR misses (Count)
system.cpu.dtb_walker_cache.ReadReq.mshrMissLatency::cpu.mmu.dtb.walker 556873681000                       # number of ReadReq MSHR miss ticks (Tick)
system.cpu.dtb_walker_cache.ReadReq.mshrMissLatency::total 556873681000                       # number of ReadReq MSHR miss ticks (Tick)
system.cpu.dtb_walker_cache.ReadReq.mshrMissRate::cpu.mmu.dtb.walker     0.248251                       # mshr miss rate for ReadReq accesses (Ratio)
system.cpu.dtb_walker_cache.ReadReq.mshrMissRate::total     0.248251                       # mshr miss rate for ReadReq accesses (Ratio)
system.cpu.dtb_walker_cache.ReadReq.avgMshrMissLatency::cpu.mmu.dtb.walker 68469.745184                       # average ReadReq mshr miss latency ((Tick/Count))
system.cpu.dtb_walker_cache.ReadReq.avgMshrMissLatency::total 68469.745184                       # average ReadReq mshr miss latency ((Tick/Count))
system.cpu.dtb_walker_cache.power_state.pwrStateResidencyTicks::UNDEFINED 681026364500                       # Cumulative time (in ticks) in various power states (Tick)
system.cpu.dtb_walker_cache.tags.tagsInUse    15.999925                       # Average ticks per tags in use ((Tick/Count))
system.cpu.dtb_walker_cache.tags.totalRefs     32761712                       # Total number of references to valid blocks. (Count)
system.cpu.dtb_walker_cache.tags.sampledRefs      8133119                       # Sample count of references to valid blocks. (Count)
system.cpu.dtb_walker_cache.tags.avgRefs     4.028185                       # Average number of references to valid blocks. ((Count/Count))
system.cpu.dtb_walker_cache.tags.warmupTick      1562500                       # The tick when the warmup percentage was hit. (Tick)
system.cpu.dtb_walker_cache.tags.occupancies::cpu.mmu.dtb.walker    15.999925                       # Average occupied blocks per tick, per requestor ((Count/Tick))
system.cpu.dtb_walker_cache.tags.avgOccs::cpu.mmu.dtb.walker     0.999995                       # Average percentage of cache occupancy ((Ratio/Tick))
system.cpu.dtb_walker_cache.tags.avgOccs::total     0.999995                       # Average percentage of cache occupancy ((Ratio/Tick))
system.cpu.dtb_walker_cache.tags.occupanciesTaskId::1024           16                       # Occupied blocks per task id (Count)
system.cpu.dtb_walker_cache.tags.ageTaskId_1024::0           16                       # Occupied blocks per task id, per block age (Count)
system.cpu.dtb_walker_cache.tags.ratioOccsTaskId::1024            1                       # Ratio of occupied blocks and all blocks, per task id (Ratio)
system.cpu.dtb_walker_cache.tags.tagAccesses     73656661                       # Number of tag accesses (Count)
system.cpu.dtb_walker_cache.tags.dataAccesses     73656661                       # Number of data accesses (Count)
system.cpu.dtb_walker_cache.tags.power_state.pwrStateResidencyTicks::UNDEFINED 681026364500                       # Cumulative time (in ticks) in various power states (Tick)
system.cpu.fetch.icacheStallCycles               3715                       # Number of cycles fetch is stalled on an Icache miss (Cycle)
system.cpu.fetch.insts                      118278330                       # Number of instructions fetch has processed (Count)
system.cpu.fetch.branches                    16043677                       # Number of branches that fetch encountered (Count)
system.cpu.fetch.predictedBranches           16043677                       # Number of branches that fetch has predicted taken (Count)
system.cpu.fetch.cycles                    1361172815                       # Number of cycles fetch has run and was not squashing or blocked (Cycle)
system.cpu.fetch.squashCycles                 1749488                       # Number of cycles fetch has spent squashing (Cycle)
system.cpu.fetch.tlbCycles                        412                       # Number of cycles fetch has spent waiting for tlb (Cycle)
system.cpu.fetch.icacheWaitRetryStallCycles          370                       # Number of stall cycles due to full MSHR (Cycle)
system.cpu.fetch.cacheLines                   5163576                       # Number of cache lines fetched (Count)
system.cpu.fetch.icacheSquashes                    29                       # Number of outstanding Icache misses that were squashed (Count)
system.cpu.fetch.nisnDist::samples         1362052056                       # Number of instructions fetched each cycle (Total) (Count)
system.cpu.fetch.nisnDist::mean              0.086838                       # Number of instructions fetched each cycle (Total) (Count)
system.cpu.fetch.nisnDist::stdev             0.699554                       # Number of instructions fetched each cycle (Total) (Count)
system.cpu.fetch.nisnDist::underflows               0      0.00%      0.00% # Number of instructions fetched each cycle (Total) (Count)
system.cpu.fetch.nisnDist::0               1334325684     97.96%     97.96% # Number of instructions fetched each cycle (Total) (Count)
system.cpu.fetch.nisnDist::1                  4793873      0.35%     98.32% # Number of instructions fetched each cycle (Total) (Count)
system.cpu.fetch.nisnDist::2                  4597825      0.34%     98.65% # Number of instructions fetched each cycle (Total) (Count)
system.cpu.fetch.nisnDist::3                  3408228      0.25%     98.90% # Number of instructions fetched each cycle (Total) (Count)
system.cpu.fetch.nisnDist::4                  1983632      0.15%     99.05% # Number of instructions fetched each cycle (Total) (Count)
system.cpu.fetch.nisnDist::5                  2977751      0.22%     99.27% # Number of instructions fetched each cycle (Total) (Count)
system.cpu.fetch.nisnDist::6                  3108480      0.23%     99.50% # Number of instructions fetched each cycle (Total) (Count)
system.cpu.fetch.nisnDist::7                  2262704      0.17%     99.66% # Number of instructions fetched each cycle (Total) (Count)
system.cpu.fetch.nisnDist::8                  4593879      0.34%    100.00% # Number of instructions fetched each cycle (Total) (Count)
system.cpu.fetch.nisnDist::overflows                0      0.00%    100.00% # Number of instructions fetched each cycle (Total) (Count)
system.cpu.fetch.nisnDist::min_value                0                       # Number of instructions fetched each cycle (Total) (Count)
system.cpu.fetch.nisnDist::max_value                8                       # Number of instructions fetched each cycle (Total) (Count)
system.cpu.fetch.nisnDist::total           1362052056                       # Number of instructions fetched each cycle (Total) (Count)
system.cpu.fetch.branchRate                  0.011779                       # Number of branch fetches per cycle (Ratio)
system.cpu.fetch.rate                        0.086838                       # Number of inst fetches per cycle ((Count/Cycle))
system.cpu.icache.demandHits::cpu.inst        5163510                       # number of demand (read+write) hits (Count)
system.cpu.icache.demandHits::total           5163510                       # number of demand (read+write) hits (Count)
system.cpu.icache.overallHits::cpu.inst       5163510                       # number of overall hits (Count)
system.cpu.icache.overallHits::total          5163510                       # number of overall hits (Count)
system.cpu.icache.demandMisses::cpu.inst           66                       # number of demand (read+write) misses (Count)
system.cpu.icache.demandMisses::total              66                       # number of demand (read+write) misses (Count)
system.cpu.icache.overallMisses::cpu.inst           66                       # number of overall misses (Count)
system.cpu.icache.overallMisses::total             66                       # number of overall misses (Count)
system.cpu.icache.demandMissLatency::cpu.inst      3602000                       # number of demand (read+write) miss ticks (Tick)
system.cpu.icache.demandMissLatency::total      3602000                       # number of demand (read+write) miss ticks (Tick)
system.cpu.icache.overallMissLatency::cpu.inst      3602000                       # number of overall miss ticks (Tick)
system.cpu.icache.overallMissLatency::total      3602000                       # number of overall miss ticks (Tick)
system.cpu.icache.demandAccesses::cpu.inst      5163576                       # number of demand (read+write) accesses (Count)
system.cpu.icache.demandAccesses::total       5163576                       # number of demand (read+write) accesses (Count)
system.cpu.icache.overallAccesses::cpu.inst      5163576                       # number of overall (read+write) accesses (Count)
system.cpu.icache.overallAccesses::total      5163576                       # number of overall (read+write) accesses (Count)
system.cpu.icache.demandMissRate::cpu.inst     0.000013                       # miss rate for demand accesses (Ratio)
system.cpu.icache.demandMissRate::total      0.000013                       # miss rate for demand accesses (Ratio)
system.cpu.icache.overallMissRate::cpu.inst     0.000013                       # miss rate for overall accesses (Ratio)
system.cpu.icache.overallMissRate::total     0.000013                       # miss rate for overall accesses (Ratio)
system.cpu.icache.demandAvgMissLatency::cpu.inst 54575.757576                       # average overall miss latency in ticks ((Tick/Count))
system.cpu.icache.demandAvgMissLatency::total 54575.757576                       # average overall miss latency in ticks ((Tick/Count))
system.cpu.icache.overallAvgMissLatency::cpu.inst 54575.757576                       # average overall miss latency ((Tick/Count))
system.cpu.icache.overallAvgMissLatency::total 54575.757576                       # average overall miss latency ((Tick/Count))
system.cpu.icache.blockedCycles::no_mshrs          735                       # number of cycles access was blocked (Cycle)
system.cpu.icache.blockedCycles::no_targets            0                       # number of cycles access was blocked (Cycle)
system.cpu.icache.blockedCauses::no_mshrs            9                       # number of times access was blocked (Count)
system.cpu.icache.blockedCauses::no_targets            0                       # number of times access was blocked (Count)
system.cpu.icache.avgBlocked::no_mshrs      81.666667                       # average number of cycles each access was blocked ((Cycle/Count))
system.cpu.icache.avgBlocked::no_targets          nan                       # average number of cycles each access was blocked ((Cycle/Count))
system.cpu.icache.demandMshrHits::cpu.inst           13                       # number of demand (read+write) MSHR hits (Count)
system.cpu.icache.demandMshrHits::total            13                       # number of demand (read+write) MSHR hits (Count)
system.cpu.icache.overallMshrHits::cpu.inst           13                       # number of overall MSHR hits (Count)
system.cpu.icache.overallMshrHits::total           13                       # number of overall MSHR hits (Count)
system.cpu.icache.demandMshrMisses::cpu.inst           53                       # number of demand (read+write) MSHR misses (Count)
system.cpu.icache.demandMshrMisses::total           53                       # number of demand (read+write) MSHR misses (Count)
system.cpu.icache.overallMshrMisses::cpu.inst           53                       # number of overall MSHR misses (Count)
system.cpu.icache.overallMshrMisses::total           53                       # number of overall MSHR misses (Count)
system.cpu.icache.demandMshrMissLatency::cpu.inst      3116000                       # number of demand (read+write) MSHR miss ticks (Tick)
system.cpu.icache.demandMshrMissLatency::total      3116000                       # number of demand (read+write) MSHR miss ticks (Tick)
system.cpu.icache.overallMshrMissLatency::cpu.inst      3116000                       # number of overall MSHR miss ticks (Tick)
system.cpu.icache.overallMshrMissLatency::total      3116000                       # number of overall MSHR miss ticks (Tick)
[...]
system.mem_ctrls.dram.totQLat            233463960382                       # Total ticks spent queuing (Tick)
system.mem_ctrls.dram.totBusLat           41841686628                       # Total ticks spent in databus transfers (Tick)
system.mem_ctrls.dram.totMemAccLat       453120257650                       # Total ticks spent from burst creation until serviced by the DRAM (Tick)
system.mem_ctrls.dram.avgQLat                18591.55                       # Average queueing delay per DRAM burst ((Tick/Count))
system.mem_ctrls.dram.avgBusLat               3332.00                       # Average bus latency per DRAM burst ((Tick/Count))
system.mem_ctrls.dram.avgMemAccLat           36083.55                       # Average memory access latency per DRAM burst ((Tick/Count))
system.mem_ctrls.dram.readRowHits             6261818                       # Number of row buffer hits during reads (Count)
system.mem_ctrls.dram.writeRowHits              97480                       # Number of row buffer hits during writes (Count)
system.mem_ctrls.dram.readRowHitRate            49.87                       # Row buffer hit rate for reads (Ratio)
system.mem_ctrls.dram.writeRowHitRate           10.04                       # Row buffer hit rate for writes (Ratio)
system.mem_ctrls.dram.bytesPerActivate::samples      7169336                       # Bytes accessed per row activation (Byte)
system.mem_ctrls.dram.bytesPerActivate::mean   120.769035                       # Bytes accessed per row activation (Byte)
system.mem_ctrls.dram.bytesPerActivate::gmean    87.847308                       # Bytes accessed per row activation (Byte)
system.mem_ctrls.dram.bytesPerActivate::stdev   156.638016                       # Bytes accessed per row activation (Byte)
system.mem_ctrls.dram.bytesPerActivate::0-127      5330851     74.36%     74.36% # Bytes accessed per row activation (Byte)
system.mem_ctrls.dram.bytesPerActivate::128-255      1126278     15.71%     90.07% # Bytes accessed per row activation (Byte)
system.mem_ctrls.dram.bytesPerActivate::256-383       267027      3.72%     93.79% # Bytes accessed per row activation (Byte)
system.mem_ctrls.dram.bytesPerActivate::384-511       140542      1.96%     95.75% # Bytes accessed per row activation (Byte)
system.mem_ctrls.dram.bytesPerActivate::512-639        88808      1.24%     96.99% # Bytes accessed per row activation (Byte)
system.mem_ctrls.dram.bytesPerActivate::640-767        63382      0.88%     97.87% # Bytes accessed per row activation (Byte)
system.mem_ctrls.dram.bytesPerActivate::768-895        43952      0.61%     98.49% # Bytes accessed per row activation (Byte)
system.mem_ctrls.dram.bytesPerActivate::896-1023        30646      0.43%     98.91% # Bytes accessed per row activation (Byte)
system.mem_ctrls.dram.bytesPerActivate::1024-1151        77850      1.09%    100.00% # Bytes accessed per row activation (Byte)
system.mem_ctrls.dram.bytesPerActivate::total      7169336                       # Bytes accessed per row activation (Byte)
system.mem_ctrls.dram.bytesRead             803681856                       # Total bytes read (Byte)
system.mem_ctrls.dram.bytesWritten           62149696                       # Total bytes written (Byte)
system.mem_ctrls.dram.avgRdBW             1176.051437                       # Average DRAM read bandwidth in MiBytes/s ((Byte/Second))
system.mem_ctrls.dram.avgWrBW               90.945489                       # Average DRAM write bandwidth in MiBytes/s ((Byte/Second))
system.mem_ctrls.dram.peakBW                 19207.00                       # Theoretical peak bandwidth in MiByte/s ((Byte/Second))
system.mem_ctrls.dram.busUtil                    6.60                       # Data bus utilization in percentage (Ratio)
system.mem_ctrls.dram.busUtilRead                6.12                       # Data bus utilization in percentage for reads (Ratio)
system.mem_ctrls.dram.busUtilWrite               0.47                       # Data bus utilization in percentage for writes (Ratio)
system.mem_ctrls.dram.pageHitRate               47.01                       # Row buffer hit rate, read and write combined (Ratio)
system.mem_ctrls.dram.power_state.pwrStateResidencyTicks::UNDEFINED 683373048500                       # Cumulative time (in ticks) in various power states (Tick)
system.mem_ctrls.dram.rank0.actEnergy    12931471661.471760                       # Energy for activate commands per rank (pJ) (Joule)
system.mem_ctrls.dram.rank0.preEnergy    17192250663.873703                       # Energy for precharge commands per rank (pJ) (Joule)
system.mem_ctrls.dram.rank0.readEnergy   38653847281.995949                       # Energy for read commands per rank (pJ) (Joule)
system.mem_ctrls.dram.rank0.writeEnergy  1849465677.696086                       # Energy for write commands per rank (pJ) (Joule)
system.mem_ctrls.dram.rank0.refreshEnergy 121597365094.434998                       # Energy for refresh commands per rank (pJ) (Joule)
system.mem_ctrls.dram.rank0.actBackEnergy 577225367064.295532                       # Energy for active background per rank (pJ) (Joule)
system.mem_ctrls.dram.rank0.preBackEnergy 2588130157.672160                       # Energy for precharge background per rank (pJ) (Joule)
system.mem_ctrls.dram.rank0.actPowerDownEnergy            0                       # Energy for active power-down per rank (pJ) (Joule)
system.mem_ctrls.dram.rank0.prePowerDownEnergy            0                       # Energy for precharge power-down per rank (pJ) (Joule)
system.mem_ctrls.dram.rank0.selfRefreshEnergy            0                       # Energy for self refresh per rank (pJ) (Joule)
system.mem_ctrls.dram.rank0.totalEnergy  772037897601.463379                       # Total energy per rank (pJ) (Joule)
system.mem_ctrls.dram.rank0.averagePower  1129.745897                       # Core power per rank (mW) (Watt)
system.mem_ctrls.dram.rank0.totalIdleTime            0                       # Total Idle time Per DRAM Rank (Tick)
system.mem_ctrls.dram.rank0.pwrStateTime::IDLE   1497645498                       # Time in different power states (Tick)
system.mem_ctrls.dram.rank0.pwrStateTime::REF  30720200000                       # Time in different power states (Tick)
system.mem_ctrls.dram.rank0.pwrStateTime::SREF            0                       # Time in different power states (Tick)
system.mem_ctrls.dram.rank0.pwrStateTime::PRE_PDN            0                       # Time in different power states (Tick)
system.mem_ctrls.dram.rank0.pwrStateTime::ACT 651155203002                       # Time in different power states (Tick)
system.mem_ctrls.dram.rank0.pwrStateTime::ACT_PDN            0                       # Time in different power states (Tick)
system.mem_ctrls.dram.rank1.actEnergy    9427859427.167397                       # Energy for activate commands per rank (pJ) (Joule)
system.mem_ctrls.dram.rank1.preEnergy    12534259701.837034                       # Energy for precharge commands per rank (pJ) (Joule)
system.mem_ctrls.dram.rank1.readEnergy   14167093710.873022                       # Energy for read commands per rank (pJ) (Joule)
system.mem_ctrls.dram.rank1.writeEnergy  1800368444.448073                       # Energy for write commands per rank (pJ) (Joule)
system.mem_ctrls.dram.rank1.refreshEnergy 121597365094.434998                       # Energy for refresh commands per rank (pJ) (Joule)
system.mem_ctrls.dram.rank1.actBackEnergy 557356774877.391235                       # Energy for active background per rank (pJ) (Joule)
system.mem_ctrls.dram.rank1.preBackEnergy 17854393080.925274                       # Energy for precharge background per rank (pJ) (Joule)
system.mem_ctrls.dram.rank1.actPowerDownEnergy            0                       # Energy for active power-down per rank (pJ) (Joule)
system.mem_ctrls.dram.rank1.prePowerDownEnergy            0                       # Energy for precharge power-down per rank (pJ) (Joule)
system.mem_ctrls.dram.rank1.selfRefreshEnergy            0                       # Energy for self refresh per rank (pJ) (Joule)
system.mem_ctrls.dram.rank1.totalEnergy  734738114337.126587                       # Total energy per rank (pJ) (Joule)
system.mem_ctrls.dram.rank1.averagePower  1075.164021                       # Core power per rank (mW) (Watt)
system.mem_ctrls.dram.rank1.totalIdleTime            0                       # Total Idle time Per DRAM Rank (Tick)
system.mem_ctrls.dram.rank1.pwrStateTime::IDLE  24855370820                       # Time in different power states (Tick)
system.mem_ctrls.dram.rank1.pwrStateTime::REF  30720200000                       # Time in different power states (Tick)
system.mem_ctrls.dram.rank1.pwrStateTime::SREF            0                       # Time in different power states (Tick)
system.mem_ctrls.dram.rank1.pwrStateTime::PRE_PDN            0                       # Time in different power states (Tick)
system.mem_ctrls.dram.rank1.pwrStateTime::ACT 627797477680                       # Time in different power states (Tick)
system.mem_ctrls.dram.rank1.pwrStateTime::ACT_PDN            0                       # Time in different power states (Tick)
system.mem_ctrls.power_state.pwrStateResidencyTicks::UNDEFINED 683373048500                       # Cumulative time (in ticks) in various power states (Tick)
system.membus.transDist::ReadResp            12463333                       # Transaction distribution (Count)
system.membus.transDist::WritebackDirty        971084                       # Transaction distribution (Count)
system.membus.transDist::CleanEvict          11196541                       # Transaction distribution (Count)
system.membus.transDist::ReadExReq              95220                       # Transaction distribution (Count)
system.membus.transDist::ReadExResp             95220                       # Transaction distribution (Count)
system.membus.transDist::ReadCleanReq        12463334                       # Transaction distribution (Count)
system.membus.pktCount_system.l2.mem_side_port::system.mem_ctrls.port     37284732                       # Packet count per connected requestor and responder (Count)
system.membus.pktCount_system.l2.mem_side_port::total     37284732                       # Packet count per connected requestor and responder (Count)
system.membus.pktCount::total                37284732                       # Packet count per connected requestor and responder (Count)
system.membus.pktSize_system.l2.mem_side_port::system.mem_ctrls.port    865896768                       # Cumulative packet size per connected requestor and responder (Byte)
system.membus.pktSize_system.l2.mem_side_port::total    865896768                       # Cumulative packet size per connected requestor and responder (Byte)
system.membus.pktSize::total                865896768                       # Cumulative packet size per connected requestor and responder (Byte)
system.membus.snoops                                0                       # Total snoops (Count)
system.membus.snoopTraffic                          0                       # Total snoop traffic (Byte)
system.membus.snoopFanout::samples           12558554                       # Request fanout histogram (Count)
system.membus.snoopFanout::mean                     0                       # Request fanout histogram (Count)
system.membus.snoopFanout::stdev                    0                       # Request fanout histogram (Count)
system.membus.snoopFanout::underflows               0      0.00%      0.00% # Request fanout histogram (Count)
system.membus.snoopFanout::0                 12558554    100.00%    100.00% # Request fanout histogram (Count)
system.membus.snoopFanout::1                        0      0.00%    100.00% # Request fanout histogram (Count)
system.membus.snoopFanout::2                        0      0.00%    100.00% # Request fanout histogram (Count)
system.membus.snoopFanout::overflows                0      0.00%    100.00% # Request fanout histogram (Count)
system.membus.snoopFanout::min_value                0                       # Request fanout histogram (Count)
system.membus.snoopFanout::max_value                0                       # Request fanout histogram (Count)
system.membus.snoopFanout::total             12558554                       # Request fanout histogram (Count)
system.membus.badaddr_responder.power_state.pwrStateResidencyTicks::UNDEFINED 683373048500                       # Cumulative time (in ticks) in various power states (Tick)
system.membus.power_state.pwrStateResidencyTicks::UNDEFINED 683373048500                       # Cumulative time (in ticks) in various power states (Tick)
system.membus.reqLayer4.occupancy         31088637500                       # Layer occupancy (ticks) (Tick)
system.membus.reqLayer4.utilization               0.0                       # Layer utilization (Ratio)
system.membus.respLayer2.occupancy        66489082306                       # Layer occupancy (ticks) (Tick)
system.membus.respLayer2.utilization              0.1                       # Layer utilization (Ratio)
system.membus.snoop_filter.totRequests       24726179                       # Total number of requests made to the snoop filter. (Count)
system.membus.snoop_filter.hitSingleRequests     12557969                       # Number of requests hitting in the snoop filter with a single holder of the requested data. (Count)
system.membus.snoop_filter.hitMultiRequests            0                       # Number of requests hitting in the snoop filter with multiple (>1) holders of the requested data. (Count)
system.membus.snoop_filter.totSnoops                0                       # Total number of snoops made to the snoop filter. (Count)
system.membus.snoop_filter.hitSingleSnoops            0                       # Number of snoops hitting in the snoop filter with a single holder of the requested data. (Count)
system.membus.snoop_filter.hitMultiSnoops            0                       # Number of snoops hitting in the snoop filter with multiple (>1) holders of the requested data. (Count)
system.mmcs.power_state.pwrStateResidencyTicks::UNDEFINED 683373048500                       # Cumulative time (in ticks) in various power states (Tick)
system.tol2bus.transDist::ReadResp           13324494                       # Transaction distribution (Count)
system.tol2bus.transDist::WritebackDirty      2815672                       # Transaction distribution (Count)
system.tol2bus.transDist::CleanEvict         11586886                       # Transaction distribution (Count)
system.tol2bus.transDist::ReadExReq            106980                       # Transaction distribution (Count)
system.tol2bus.transDist::ReadExResp           106980                       # Transaction distribution (Count)
system.tol2bus.transDist::ReadSharedReq      13324495                       # Transaction distribution (Count)
system.tol2bus.pktCount_system.cpu.dcache.mem_side_port::system.l2.cpu_side_port     15839518                       # Packet count per connected requestor and responder (Count)
system.tol2bus.pktCount_system.cpu.dtb_walker_cache.mem_side_port::system.l2.cpu_side_port     24454905                       # Packet count per connected requestor and responder (Count)
system.tol2bus.pktCount::total               40294423                       # Packet count per connected requestor and responder (Count)
system.tol2bus.pktSize_system.cpu.dcache.mem_side_port::system.l2.cpu_side_port    455963328                       # Cumulative packet size per connected requestor and responder (Byte)
system.tol2bus.pktSize_system.cpu.dtb_walker_cache.mem_side_port::system.l2.cpu_side_port    521704640                       # Cumulative packet size per connected requestor and responder (Byte)
system.tol2bus.pktSize::total               977667968                       # Cumulative packet size per connected requestor and responder (Byte)
system.tol2bus.snoops                          971084                       # Total snoops (Count)
system.tol2bus.snoopTraffic                  62149376                       # Total snoop traffic (Byte)
system.tol2bus.snoopFanout::samples          14402559                       # Request fanout histogram (Count)
system.tol2bus.snoopFanout::mean             0.027102                       # Request fanout histogram (Count)
system.tol2bus.snoopFanout::stdev            0.162382                       # Request fanout histogram (Count)
system.tol2bus.snoopFanout::underflows              0      0.00%      0.00% # Request fanout histogram (Count)
system.tol2bus.snoopFanout::0                14012215     97.29%     97.29% # Request fanout histogram (Count)
system.tol2bus.snoopFanout::1                  390344      2.71%    100.00% # Request fanout histogram (Count)
system.tol2bus.snoopFanout::2                       0      0.00%    100.00% # Request fanout histogram (Count)
system.tol2bus.snoopFanout::3                       0      0.00%    100.00% # Request fanout histogram (Count)
system.tol2bus.snoopFanout::4                       0      0.00%    100.00% # Request fanout histogram (Count)
system.tol2bus.snoopFanout::overflows               0      0.00%    100.00% # Request fanout histogram (Count)
system.tol2bus.snoopFanout::min_value               0                       # Request fanout histogram (Count)
system.tol2bus.snoopFanout::max_value               1                       # Request fanout histogram (Count)
system.tol2bus.snoopFanout::total            14402559                       # Request fanout histogram (Count)
system.tol2bus.power_state.pwrStateResidencyTicks::UNDEFINED 683373048500                       # Cumulative time (in ticks) in various power states (Tick)
system.tol2bus.reqLayer0.occupancy        14353768500                       # Layer occupancy (ticks) (Tick)
system.tol2bus.reqLayer0.utilization              0.0                       # Layer utilization (Ratio)
system.tol2bus.respLayer1.occupancy        5279839000                       # Layer occupancy (ticks) (Tick)
system.tol2bus.respLayer1.utilization             0.0                       # Layer utilization (Ratio)
system.tol2bus.respLayer3.occupancy        8156049653                       # Layer occupancy (ticks) (Tick)
system.tol2bus.respLayer3.utilization             0.0                       # Layer utilization (Ratio)
system.tol2bus.snoop_filter.totRequests      26862949                       # Total number of requests made to the snoop filter. (Count)
system.tol2bus.snoop_filter.hitSingleRequests     13431474                       # Number of requests hitting in the snoop filter with a single holder of the requested data. (Count)
system.tol2bus.snoop_filter.hitMultiRequests       390344                       # Number of requests hitting in the snoop filter with multiple (>1) holders of the requested data. (Count)
system.tol2bus.snoop_filter.totSnoops               0                       # Total number of snoops made to the snoop filter. (Count)
system.tol2bus.snoop_filter.hitSingleSnoops            0                       # Number of snoops hitting in the snoop filter with a single holder of the requested data. (Count)
system.tol2bus.snoop_filter.hitMultiSnoops            0                       # Number of snoops hitting in the snoop filter with multiple (>1) holders of the requested data. (Count)
system.uartlite.power_state.pwrStateResidencyTicks::UNDEFINED 683373048500                       # Cumulative time (in ticks) in various power states (Tick)
system.voltage_domain.voltage                       1                       # Voltage in Volts (Volt)
system.workload.inst.arm                            0                       # number of arm instructions executed (Count)
system.workload.inst.quiesce                        0                       # number of quiesce instructions executed (Count)

---------- End Simulation Statistics   ----------
