
---------- Begin Simulation Statistics ----------
simSeconds                                   0.004581                       # Number of seconds simulated (Second)
simTicks                                   4580612500                       # Number of ticks simulated (Tick)
finalTick                                  4580612500                       # Number of ticks from beginning of simulation (restored from checkpoints and never reset) (Tick)
simFreq                                  1000000000000                       # The number of ticks per simulated second ((Tick/Second))
hostSeconds                                     60.52                       # Real time elapsed on the host (Second)
hostTickRate                                 75686663                       # The number of ticks simulated per host second (ticks/s) ((Tick/Second))
hostMemory                                   17005792                       # Number of bytes of host memory used (Byte)
simInsts                                     10000005                       # Number of instructions simulated (Count)
simOps                                       10689324                       # Number of ops (including micro ops) simulated (Count)
hostInstRate                                   165232                       # Simulator instruction rate (inst/s) ((Count/Second))
hostOpRate                                     176622                       # Simulator op (including micro ops) rate (op/s) ((Count/Second))
system.bridge.power_state.pwrStateResidencyTicks::UNDEFINED   4580612500                       # Cumulative time (in ticks) in various power states (Tick)
system.clk_domain.clock                          1000                       # Clock period in ticks (Tick)
system.cpu.numCycles                          9161226                       # Number of cpu cycles simulated (Cycle)
system.cpu.numWorkItemsStarted                      0                       # Number of work items this cpu started (Count)
system.cpu.numWorkItemsCompleted                    0                       # Number of work items this cpu completed (Count)
system.cpu.instsAdded                        11859937                       # Number of instructions added to the IQ (excludes non-spec) (Count)
system.cpu.nonSpecInstsAdded                       54                       # Number of non-speculative instructions added to the IQ (Count)
system.cpu.instsIssued                       11534422                       # Number of instructions issued (Count)
system.cpu.squashedInstsIssued                  15674                       # Number of squashed instructions issued (Count)
system.cpu.squashedInstsExamined              1229767                       # Number of squashed instructions iterated over during squash; mainly for profiling (Count)
system.cpu.squashedOperandsExamined            773299                       # Number of squashed operands that are examined and possibly removed from graph (Count)
system.cpu.squashedNonSpecRemoved                   1                       # Number of squashed non-spec instructions that were removed (Count)
system.cpu.numIssuedDist::samples             9147659                       # Number of insts issued each cycle (Count)
system.cpu.numIssuedDist::mean               1.260915                       # Number of insts issued each cycle (Count)
system.cpu.numIssuedDist::stdev              2.026006                       # Number of insts issued each cycle (Count)
system.cpu.numIssuedDist::underflows                0      0.00%      0.00% # Number of insts issued each cycle (Count)
system.cpu.numIssuedDist::0                   5884449     64.33%     64.33% # Number of insts issued each cycle (Count)
system.cpu.numIssuedDist::1                    498829      5.45%     69.78% # Number of insts issued each cycle (Count)
system.cpu.numIssuedDist::2                    621335      6.79%     76.57% # Number of insts issued each cycle (Count)
system.cpu.numIssuedDist::3                    578522      6.32%     82.90% # Number of insts issued each cycle (Count)
system.cpu.numIssuedDist::4                    635050      6.94%     89.84% # Number of insts issued each cycle (Count)
system.cpu.numIssuedDist::5                    413491      4.52%     94.36% # Number of insts issued each cycle (Count)
system.cpu.numIssuedDist::6                    276440      3.02%     97.38% # Number of insts issued each cycle (Count)
system.cpu.numIssuedDist::7                    125282      1.37%     98.75% # Number of insts issued each cycle (Count)
system.cpu.numIssuedDist::8                    114261      1.25%    100.00% # Number of insts issued each cycle (Count)
system.cpu.numIssuedDist::overflows                 0      0.00%    100.00% # Number of insts issued each cycle (Count)
system.cpu.numIssuedDist::min_value                 0                       # Number of insts issued each cycle (Count)
system.cpu.numIssuedDist::max_value                 8                       # Number of insts issued each cycle (Count)
system.cpu.numIssuedDist::total               9147659                       # Number of insts issued each cycle (Count)
system.cpu.statFuBusy::No_OpClass                   0      0.00%      0.00% # attempts to use FU when none available (Count)
system.cpu.statFuBusy::IntAlu                   21969      1.99%      1.99% # attempts to use FU when none available (Count)
system.cpu.statFuBusy::IntMult                      0      0.00%      1.99% # attempts to use FU when none available (Count)
system.cpu.statFuBusy::IntDiv                       0      0.00%      1.99% # attempts to use FU when none available (Count)
system.cpu.statFuBusy::FloatAdd                 62757      5.67%      7.66% # attempts to use FU when none available (Count)
system.cpu.statFuBusy::FloatCmp                    76      0.01%      7.67% # attempts to use FU when none available (Count)
system.cpu.statFuBusy::FloatCvt                345956     31.28%     38.95% # attempts to use FU when none available (Count)
system.cpu.statFuBusy::FloatMult                  796      0.07%     39.02% # attempts to use FU when none available (Count)
system.cpu.statFuBusy::FloatMultAcc                 0      0.00%     39.02% # attempts to use FU when none available (Count)
system.cpu.statFuBusy::FloatDiv                     0      0.00%     39.02% # attempts to use FU when none available (Count)
system.cpu.statFuBusy::FloatMisc                    0      0.00%     39.02% # attempts to use FU when none available (Count)
system.cpu.statFuBusy::FloatSqrt                    0      0.00%     39.02% # attempts to use FU when none available (Count)
system.cpu.statFuBusy::SimdAdd                      0      0.00%     39.02% # attempts to use FU when none available (Count)
system.cpu.statFuBusy::SimdAddAcc                   0      0.00%     39.02% # attempts to use FU when none available (Count)
system.cpu.statFuBusy::SimdAlu                      0      0.00%     39.02% # attempts to use FU when none available (Count)
system.cpu.statFuBusy::SimdCmp                      0      0.00%     39.02% # attempts to use FU when none available (Count)
system.cpu.statFuBusy::SimdCvt                      0      0.00%     39.02% # attempts to use FU when none available (Count)
system.cpu.statFuBusy::SimdMisc                     0      0.00%     39.02% # attempts to use FU when none available (Count)
system.cpu.statFuBusy::SimdMult                     0      0.00%     39.02% # attempts to use FU when none available (Count)
system.cpu.statFuBusy::SimdMultAcc                  0      0.00%     39.02% # attempts to use FU when none available (Count)
system.cpu.statFuBusy::SimdShift                    0      0.00%     39.02% # attempts to use FU when none available (Count)
system.cpu.statFuBusy::SimdShiftAcc                 0      0.00%     39.02% # attempts to use FU when none available (Count)
system.cpu.statFuBusy::SimdDiv                      0      0.00%     39.02% # attempts to use FU when none available (Count)
system.cpu.statFuBusy::SimdSqrt                     0      0.00%     39.02% # attempts to use FU when none available (Count)
system.cpu.statFuBusy::SimdFloatAdd                 0      0.00%     39.02% # attempts to use FU when none available (Count)
system.cpu.statFuBusy::SimdFloatAlu                 0      0.00%     39.02% # attempts to use FU when none available (Count)
system.cpu.statFuBusy::SimdFloatCmp                 0      0.00%     39.02% # attempts to use FU when none available (Count)
system.cpu.statFuBusy::SimdFloatCvt                 0      0.00%     39.02% # attempts to use FU when none available (Count)
system.cpu.statFuBusy::SimdFloatDiv                 0      0.00%     39.02% # attempts to use FU when none available (Count)
system.cpu.statFuBusy::SimdFloatMisc                0      0.00%     39.02% # attempts to use FU when none available (Count)
system.cpu.statFuBusy::SimdFloatMult                0      0.00%     39.02% # attempts to use FU when none available (Count)
system.cpu.statFuBusy::SimdFloatMultAcc             0      0.00%     39.02% # attempts to use FU when none available (Count)
system.cpu.statFuBusy::SimdFloatSqrt                0      0.00%     39.02% # attempts to use FU when none available (Count)
system.cpu.statFuBusy::SimdReduceAdd                0      0.00%     39.02% # attempts to use FU when none available (Count)
system.cpu.statFuBusy::SimdReduceAlu                0      0.00%     39.02% # attempts to use FU when none available (Count)
system.cpu.statFuBusy::SimdReduceCmp                0      0.00%     39.02% # attempts to use FU when none available (Count)
system.cpu.statFuBusy::SimdFloatReduceAdd            0      0.00%     39.02% # attempts to use FU when none available (Count)
system.cpu.statFuBusy::SimdFloatReduceCmp            0      0.00%     39.02% # attempts to use FU when none available (Count)
system.cpu.statFuBusy::SimdAes                      0      0.00%     39.02% # attempts to use FU when none available (Count)
system.cpu.statFuBusy::SimdAesMix                   0      0.00%     39.02% # attempts to use FU when none available (Count)
system.cpu.statFuBusy::SimdSha1Hash                 0      0.00%     39.02% # attempts to use FU when none available (Count)
system.cpu.statFuBusy::SimdSha1Hash2                0      0.00%     39.02% # attempts to use FU when none available (Count)
system.cpu.statFuBusy::SimdSha256Hash               0      0.00%     39.02% # attempts to use FU when none available (Count)
system.cpu.statFuBusy::SimdSha256Hash2              0      0.00%     39.02% # attempts to use FU when none available (Count)
system.cpu.statFuBusy::SimdShaSigma2                0      0.00%     39.02% # attempts to use FU when none available (Count)
system.cpu.statFuBusy::SimdShaSigma3                0      0.00%     39.02% # attempts to use FU when none available (Count)
system.cpu.statFuBusy::SimdPredAlu                  0      0.00%     39.02% # attempts to use FU when none available (Count)
system.cpu.statFuBusy::MemRead                 119194     10.78%     49.80% # attempts to use FU when none available (Count)
system.cpu.statFuBusy::MemWrite                 22852      2.07%     51.86% # attempts to use FU when none available (Count)
system.cpu.statFuBusy::FloatMemRead            532286     48.13%     99.99% # attempts to use FU when none available (Count)
system.cpu.statFuBusy::FloatMemWrite               22      0.00%    100.00% # attempts to use FU when none available (Count)
system.cpu.statFuBusy::IprAccess                    0      0.00%    100.00% # attempts to use FU when none available (Count)
system.cpu.statFuBusy::InstPrefetch                 0      0.00%    100.00% # attempts to use FU when none available (Count)
system.cpu.statFuBusy::FMAMul                       1      0.00%    100.00% # attempts to use FU when none available (Count)
system.cpu.statFuBusy::FMAAcc                      53      0.00%    100.00% # attempts to use FU when none available (Count)
system.cpu.statIssuedInstType_0::No_OpClass           32      0.00%      0.00% # Number of instructions issued per FU type, per thread (Count)
system.cpu.statIssuedInstType_0::IntAlu       4228135     36.66%     36.66% # Number of instructions issued per FU type, per thread (Count)
system.cpu.statIssuedInstType_0::IntMult           64      0.00%     36.66% # Number of instructions issued per FU type, per thread (Count)
system.cpu.statIssuedInstType_0::IntDiv            10      0.00%     36.66% # Number of instructions issued per FU type, per thread (Count)
system.cpu.statIssuedInstType_0::FloatAdd       712420      6.18%     42.83% # Number of instructions issued per FU type, per thread (Count)
system.cpu.statIssuedInstType_0::FloatCmp        35492      0.31%     43.14% # Number of instructions issued per FU type, per thread (Count)
system.cpu.statIssuedInstType_0::FloatCvt      1506873     13.06%     56.21% # Number of instructions issued per FU type, per thread (Count)
system.cpu.statIssuedInstType_0::FloatMult       746942      6.48%     62.68% # Number of instructions issued per FU type, per thread (Count)
system.cpu.statIssuedInstType_0::FloatMultAcc            0      0.00%     62.68% # Number of instructions issued per FU type, per thread (Count)
system.cpu.statIssuedInstType_0::FloatDiv            0      0.00%     62.68% # Number of instructions issued per FU type, per thread (Count)
system.cpu.statIssuedInstType_0::FloatMisc           36      0.00%     62.68% # Number of instructions issued per FU type, per thread (Count)
system.cpu.statIssuedInstType_0::FloatSqrt            0      0.00%     62.68% # Number of instructions issued per FU type, per thread (Count)
system.cpu.statIssuedInstType_0::SimdAdd            0      0.00%     62.68% # Number of instructions issued per FU type, per thread (Count)
system.cpu.statIssuedInstType_0::SimdAddAcc            0      0.00%     62.68% # Number of instructions issued per FU type, per thread (Count)
system.cpu.statIssuedInstType_0::SimdAlu            0      0.00%     62.68% # Number of instructions issued per FU type, per thread (Count)
system.cpu.statIssuedInstType_0::SimdCmp            0      0.00%     62.68% # Number of instructions issued per FU type, per thread (Count)
system.cpu.statIssuedInstType_0::SimdCvt            0      0.00%     62.68% # Number of instructions issued per FU type, per thread (Count)
system.cpu.statIssuedInstType_0::SimdMisc            0      0.00%     62.68% # Number of instructions issued per FU type, per thread (Count)
system.cpu.statIssuedInstType_0::SimdMult            0      0.00%     62.68% # Number of instructions issued per FU type, per thread (Count)
system.cpu.statIssuedInstType_0::SimdMultAcc            0      0.00%     62.68% # Number of instructions issued per FU type, per thread (Count)
system.cpu.statIssuedInstType_0::SimdShift            0      0.00%     62.68% # Number of instructions issued per FU type, per thread (Count)
system.cpu.statIssuedInstType_0::SimdShiftAcc            0      0.00%     62.68% # Number of instructions issued per FU type, per thread (Count)
system.cpu.statIssuedInstType_0::SimdDiv            0      0.00%     62.68% # Number of instructions issued per FU type, per thread (Count)
system.cpu.statIssuedInstType_0::SimdSqrt            0      0.00%     62.68% # Number of instructions issued per FU type, per thread (Count)
system.cpu.statIssuedInstType_0::SimdFloatAdd            0      0.00%     62.68% # Number of instructions issued per FU type, per thread (Count)
system.cpu.statIssuedInstType_0::SimdFloatAlu            0      0.00%     62.68% # Number of instructions issued per FU type, per thread (Count)
system.cpu.statIssuedInstType_0::SimdFloatCmp            0      0.00%     62.68% # Number of instructions issued per FU type, per thread (Count)
system.cpu.statIssuedInstType_0::SimdFloatCvt            0      0.00%     62.68% # Number of instructions issued per FU type, per thread (Count)
system.cpu.statIssuedInstType_0::SimdFloatDiv            0      0.00%     62.68% # Number of instructions issued per FU type, per thread (Count)
system.cpu.statIssuedInstType_0::SimdFloatMisc            0      0.00%     62.68% # Number of instructions issued per FU type, per thread (Count)
system.cpu.statIssuedInstType_0::SimdFloatMult            0      0.00%     62.68% # Number of instructions issued per FU type, per thread (Count)
system.cpu.statIssuedInstType_0::SimdFloatMultAcc            0      0.00%     62.68% # Number of instructions issued per FU type, per thread (Count)
system.cpu.statIssuedInstType_0::SimdFloatSqrt            0      0.00%     62.68% # Number of instructions issued per FU type, per thread (Count)
system.cpu.statIssuedInstType_0::SimdReduceAdd            0      0.00%     62.68% # Number of instructions issued per FU type, per thread (Count)
system.cpu.statIssuedInstType_0::SimdReduceAlu            0      0.00%     62.68% # Number of instructions issued per FU type, per thread (Count)
system.cpu.statIssuedInstType_0::SimdReduceCmp            0      0.00%     62.68% # Number of instructions issued per FU type, per thread (Count)
system.cpu.statIssuedInstType_0::SimdFloatReduceAdd            0      0.00%     62.68% # Number of instructions issued per FU type, per thread (Count)
system.cpu.statIssuedInstType_0::SimdFloatReduceCmp            0      0.00%     62.68% # Number of instructions issued per FU type, per thread (Count)
system.cpu.statIssuedInstType_0::SimdAes            0      0.00%     62.68% # Number of instructions issued per FU type, per thread (Count)
system.cpu.statIssuedInstType_0::SimdAesMix            0      0.00%     62.68% # Number of instructions issued per FU type, per thread (Count)
system.cpu.statIssuedInstType_0::SimdSha1Hash            0      0.00%     62.68% # Number of instructions issued per FU type, per thread (Count)
system.cpu.statIssuedInstType_0::SimdSha1Hash2            0      0.00%     62.68% # Number of instructions issued per FU type, per thread (Count)
system.cpu.statIssuedInstType_0::SimdSha256Hash            0      0.00%     62.68% # Number of instructions issued per FU type, per thread (Count)
system.cpu.statIssuedInstType_0::SimdSha256Hash2            0      0.00%     62.68% # Number of instructions issued per FU type, per thread (Count)
system.cpu.statIssuedInstType_0::SimdShaSigma2            0      0.00%     62.68% # Number of instructions issued per FU type, per thread (Count)
system.cpu.statIssuedInstType_0::SimdShaSigma3            0      0.00%     62.68% # Number of instructions issued per FU type, per thread (Count)
system.cpu.statIssuedInstType_0::SimdPredAlu            0      0.00%     62.68% # Number of instructions issued per FU type, per thread (Count)
system.cpu.statIssuedInstType_0::MemRead       620046      5.38%     68.06% # Number of instructions issued per FU type, per thread (Count)
system.cpu.statIssuedInstType_0::MemWrite       176733      1.53%     69.59% # Number of instructions issued per FU type, per thread (Count)
system.cpu.statIssuedInstType_0::FloatMemRead      2093062     18.15%     87.74% # Number of instructions issued per FU type, per thread (Count)
system.cpu.statIssuedInstType_0::FloatMemWrite         1208      0.01%     87.75% # Number of instructions issued per FU type, per thread (Count)
system.cpu.statIssuedInstType_0::IprAccess            0      0.00%     87.75% # Number of instructions issued per FU type, per thread (Count)
system.cpu.statIssuedInstType_0::InstPrefetch            0      0.00%     87.75% # Number of instructions issued per FU type, per thread (Count)
system.cpu.statIssuedInstType_0::FMAMul        708788      6.14%     93.89% # Number of instructions issued per FU type, per thread (Count)
system.cpu.statIssuedInstType_0::FMAAcc        704581      6.11%    100.00% # Number of instructions issued per FU type, per thread (Count)
system.cpu.statIssuedInstType_0::total       11534422                       # Number of instructions issued per FU type, per thread (Count)
system.cpu.issueRate                         1.259048                       # Inst issue rate ((Count/Cycle))
system.cpu.fuBusy                             1105962                       # FU busy when requested (Count)
system.cpu.fuBusyRate                        0.095884                       # FU busy rate (busy events/executed inst) ((Count/Count))
system.cpu.intInstQueueReads                 19376170                       # Number of integer instruction queue reads (Count)
system.cpu.intInstQueueWrites                 5935410                       # Number of integer instruction queue writes (Count)
system.cpu.intInstQueueWakeupAccesses         4962935                       # Number of integer instruction queue wakeup accesses (Count)
system.cpu.fpInstQueueReads                  13961965                       # Number of floating instruction queue reads (Count)
system.cpu.fpInstQueueWrites                  7155538                       # Number of floating instruction queue writes (Count)
system.cpu.fpInstQueueWakeupAccesses          6407379                       # Number of floating instruction queue wakeup accesses (Count)
system.cpu.vecInstQueueReads                        0                       # Number of vector instruction queue reads (Count)
system.cpu.vecInstQueueWrites                       0                       # Number of vector instruction queue writes (Count)
system.cpu.vecInstQueueWakeupAccesses               0                       # Number of vector instruction queue wakeup accesses (Count)
system.cpu.intAluAccesses                     5189003                       # Number of integer alu accesses (Count)
system.cpu.fpAluAccesses                      7451349                       # Number of floating point alu accesses (Count)
system.cpu.vecAluAccesses                           0                       # Number of vector alu accesses (Count)
system.cpu.numInsts                          11482780                       # Number of executed instructions (Count)
system.cpu.numLoadInsts                       2678903                       # Number of load instructions executed (Count)
system.cpu.numSquashedInsts                     36756                       # Number of squashed instructions skipped in execute (Count)
system.cpu.numSwp                                   0                       # Number of swp insts executed (Count)
system.cpu.numNop                               83379                       # Number of nop insts executed (Count)
system.cpu.numRefs                            2850816                       # Number of memory reference insts executed (Count)
system.cpu.numBranches                        1010773                       # Number of branches executed (Count)
system.cpu.numStoreInsts                       171913                       # Number of stores executed (Count)
system.cpu.numRate                           1.253411                       # Inst execution rate ((Count/Cycle))
system.cpu.timesIdled                             152                       # Number of times that the entire CPU went into an idle state and unscheduled itself (Count)
system.cpu.idleCycles                           13567                       # Total number of cycles that the CPU has spent unscheduled due to idling (Cycle)
system.cpu.committedInsts                    10000005                       # Number of Instructions Simulated (Count)
system.cpu.committedOps                      10689324                       # Number of Ops (including micro ops) Simulated (Count)
system.cpu.cpi                               0.916122                       # CPI: Cycles Per Instruction ((Cycle/Count))
system.cpu.totalCpi                          0.916122                       # CPI: Total CPI of All Threads ((Cycle/Count))
system.cpu.ipc                               1.091558                       # IPC: Instructions Per Cycle ((Count/Cycle))
system.cpu.totalIpc                          1.091558                       # IPC: Total IPC of All Threads ((Count/Cycle))
system.cpu.intRegfileReads                    9969137                       # Number of integer regfile reads (Count)
system.cpu.intRegfileWrites                   3880704                       # Number of integer regfile writes (Count)
system.cpu.fpRegfileReads                     6602199                       # Number of floating regfile reads (Count)
system.cpu.fpRegfileWrites                    5627312                       # Number of floating regfile writes (Count)
system.cpu.miscRegfileReads                 111567150                       # number of misc regfile reads (Count)
system.cpu.miscRegfileWrites                  5491982                       # number of misc regfile writes (Count)
system.cpu.lastCommitTick                  4580612500                       # The last tick to commit an instruction (Count)
system.cpu.MemDepUnit__0.insertedLoads        2725250                       # Number of loads inserted to the mem dependence unit. (Count)
system.cpu.MemDepUnit__0.insertedStores        190106                       # Number of stores inserted to the mem dependence unit. (Count)
system.cpu.MemDepUnit__0.conflictingLoads        43654                       # Number of conflicting loads. (Count)
system.cpu.MemDepUnit__0.conflictingStores        29023                       # Number of conflicting stores. (Count)
system.cpu.MemDepUnit__1.insertedLoads              0                       # Number of loads inserted to the mem dependence unit. (Count)
system.cpu.MemDepUnit__1.insertedStores             0                       # Number of stores inserted to the mem dependence unit. (Count)
system.cpu.MemDepUnit__1.conflictingLoads            0                       # Number of conflicting loads. (Count)
system.cpu.MemDepUnit__1.conflictingStores            0                       # Number of conflicting stores. (Count)
system.cpu.MemDepUnit__2.insertedLoads              0                       # Number of loads inserted to the mem dependence unit. (Count)
system.cpu.MemDepUnit__2.insertedStores             0                       # Number of stores inserted to the mem dependence unit. (Count)
system.cpu.MemDepUnit__2.conflictingLoads            0                       # Number of conflicting loads. (Count)
system.cpu.MemDepUnit__2.conflictingStores            0                       # Number of conflicting stores. (Count)
system.cpu.MemDepUnit__3.insertedLoads              0                       # Number of loads inserted to the mem dependence unit. (Count)
system.cpu.MemDepUnit__3.insertedStores             0                       # Number of stores inserted to the mem dependence unit. (Count)
system.cpu.MemDepUnit__3.conflictingLoads            0                       # Number of conflicting loads. (Count)
system.cpu.MemDepUnit__3.conflictingStores            0                       # Number of conflicting stores. (Count)
system.cpu.branchPred.lookups                 1261411                       # Number of BP lookups (Count)
system.cpu.branchPred.condPredicted           1207389                       # Number of conditional branches predicted (Count)
system.cpu.branchPred.condIncorrect             12803                       # Number of conditional branches incorrect (Count)
system.cpu.branchPred.BTBLookups               935222                       # Number of BTB lookups (Count)
system.cpu.branchPred.BTBHits                  934570                       # Number of BTB hits (Count)
system.cpu.branchPred.BTBHitRatio            0.999303                       # BTB Hit Ratio (Ratio)
system.cpu.branchPred.RASUsed                   24381                       # Number of times the RAS was used to get a target. (Count)
system.cpu.branchPred.RASIncorrect                  5                       # Number of incorrect RAS predictions. (Count)
system.cpu.branchPred.indirectLookups               0                       # Number of indirect predictor lookups. (Count)
system.cpu.branchPred.indirectHits                  0                       # Number of indirect target hits. (Count)
system.cpu.branchPred.indirectMisses                0                       # Number of indirect misses. (Count)
system.cpu.branchPred.indirectMispredicted            0                       # Number of mispredicted indirect branches. (Count)
system.cpu.branchPred.tage.longestMatchProviderCorrect       595329                       # Number of times TAGE Longest Match is the provider and the prediction is correct (Count)
system.cpu.branchPred.tage.altMatchProviderCorrect         5315                       # Number of times TAGE Alt Match is the provider and the prediction is correct (Count)
system.cpu.branchPred.tage.bimodalAltMatchProviderCorrect          632                       # Number of times TAGE Alt Match is the bimodal and it is the provider and the prediction is correct (Count)
system.cpu.branchPred.tage.bimodalProviderCorrect       260778                       # Number of times there are no hits on the TAGE tables and the bimodal prediction is correct (Count)
system.cpu.branchPred.tage.longestMatchProviderWrong         8315                       # Number of times TAGE Longest Match is the provider and the prediction is wrong (Count)
system.cpu.branchPred.tage.altMatchProviderWrong         2017                       # Number of times TAGE Alt Match is the provider and the prediction is wrong (Count)
system.cpu.branchPred.tage.bimodalAltMatchProviderWrong          156                       # Number of times TAGE Alt Match is the bimodal and it is the provider and the prediction is wrong (Count)
system.cpu.branchPred.tage.bimodalProviderWrong          696                       # Number of times there are no hits on the TAGE tables and the bimodal prediction is wrong (Count)
system.cpu.branchPred.tage.altMatchProviderWouldHaveHit         1521                       # Number of times TAGE Longest Match is the provider, the prediction is wrong and Alt Match prediction was correct (Count)
system.cpu.branchPred.tage.longestMatchProviderWouldHaveHit         1237                       # Number of times TAGE Alt Match is the provider, the prediction is wrong and Longest Match prediction was correct (Count)
system.cpu.branchPred.tage.longestMatchProvider::0            0                       # TAGE provider for longest match (Count)
system.cpu.branchPred.tage.longestMatchProvider::1       159820                       # TAGE provider for longest match (Count)
system.cpu.branchPred.tage.longestMatchProvider::2       152983                       # TAGE provider for longest match (Count)
system.cpu.branchPred.tage.longestMatchProvider::3        49918                       # TAGE provider for longest match (Count)
system.cpu.branchPred.tage.longestMatchProvider::4       124287                       # TAGE provider for longest match (Count)
system.cpu.branchPred.tage.longestMatchProvider::5        20268                       # TAGE provider for longest match (Count)
system.cpu.branchPred.tage.longestMatchProvider::6        17645                       # TAGE provider for longest match (Count)
system.cpu.branchPred.tage.longestMatchProvider::7        86055                       # TAGE provider for longest match (Count)
system.cpu.branchPred.tage.altMatchProvider::0       182338                       # TAGE provider for alt match (Count)
system.cpu.branchPred.tage.altMatchProvider::1       169527                       # TAGE provider for alt match (Count)
system.cpu.branchPred.tage.altMatchProvider::2       125777                       # TAGE provider for alt match (Count)
system.cpu.branchPred.tage.altMatchProvider::3        15026                       # TAGE provider for alt match (Count)
system.cpu.branchPred.tage.altMatchProvider::4        24917                       # TAGE provider for alt match (Count)
system.cpu.branchPred.tage.altMatchProvider::5        12287                       # TAGE provider for alt match (Count)
system.cpu.branchPred.tage.altMatchProvider::6        81104                       # TAGE provider for alt match (Count)
system.cpu.branchPred.tage.altMatchProvider::7            0                       # TAGE provider for alt match (Count)
system.cpu.commit.commitSquashedInsts         1254086                       # The number of squashed insts skipped by commit (Count)
system.cpu.commit.commitNonSpecStalls              53                       # The number of times commit has been forced to stall to communicate backwards (Count)
system.cpu.commit.branchMispredicts             12633                       # The number of times a branch was mispredicted (Count)
system.cpu.commit.numCommittedDist::samples      8926330                       # Number of insts commited each cycle (Count)
system.cpu.commit.numCommittedDist::mean     1.197505                       # Number of insts commited each cycle (Count)
system.cpu.commit.numCommittedDist::stdev     2.450546                       # Number of insts commited each cycle (Count)
system.cpu.commit.numCommittedDist::underflows            0      0.00%      0.00% # Number of insts commited each cycle (Count)
system.cpu.commit.numCommittedDist::0         7033327     78.79%     78.79% # Number of insts commited each cycle (Count)
system.cpu.commit.numCommittedDist::1          138724      1.55%     80.35% # Number of insts commited each cycle (Count)
system.cpu.commit.numCommittedDist::2           58274      0.65%     81.00% # Number of insts commited each cycle (Count)
system.cpu.commit.numCommittedDist::3           85327      0.96%     81.96% # Number of insts commited each cycle (Count)
system.cpu.commit.numCommittedDist::4           40669      0.46%     82.41% # Number of insts commited each cycle (Count)
system.cpu.commit.numCommittedDist::5           43136      0.48%     82.89% # Number of insts commited each cycle (Count)
system.cpu.commit.numCommittedDist::6         1022489     11.45%     94.35% # Number of insts commited each cycle (Count)
system.cpu.commit.numCommittedDist::overflows       504384      5.65%    100.00% # Number of insts commited each cycle (Count)
system.cpu.commit.numCommittedDist::min_value            0                       # Number of insts commited each cycle (Count)
system.cpu.commit.numCommittedDist::max_value            8                       # Number of insts commited each cycle (Count)
system.cpu.commit.numCommittedDist::total      8926330                       # Number of insts commited each cycle (Count)
system.cpu.commit.instsCommitted             10000005                       # Number of instructions committed (Count)
system.cpu.commit.opsCommitted               10689324                       # Number of ops (including micro ops) committed (Count)
system.cpu.commit.memRefs                     2528562                       # Number of memory references committed (Count)
system.cpu.commit.loads                       2370276                       # Number of loads committed (Count)
system.cpu.commit.amos                             20                       # Number of atomic instructions committed (Count)
system.cpu.commit.membars                           0                       # Number of memory barriers committed (Count)
system.cpu.commit.branches                     905929                       # Number of branches committed (Count)
system.cpu.commit.vectorInstructions                0                       # Number of committed Vector instructions. (Count)
system.cpu.commit.floating                    6182480                       # Number of committed floating point instructions. (Count)
system.cpu.commit.integer                     6476773                       # Number of committed integer instructions. (Count)
system.cpu.commit.functionCalls                 13478                       # Number of function calls committed. (Count)
system.cpu.commit.committedInstType_0::No_OpClass           32      0.00%      0.00% # Class of committed instruction (Count)
system.cpu.commit.committedInstType_0::IntAlu      3874039     36.24%     36.24% # Class of committed instruction (Count)
system.cpu.commit.committedInstType_0::IntMult           42      0.00%     36.24% # Class of committed instruction (Count)
system.cpu.commit.committedInstType_0::IntDiv            8      0.00%     36.24% # Class of committed instruction (Count)
system.cpu.commit.committedInstType_0::FloatAdd       689317      6.45%     42.69% # Class of committed instruction (Count)
system.cpu.commit.committedInstType_0::FloatCmp        35489      0.33%     43.02% # Class of committed instruction (Count)
system.cpu.commit.committedInstType_0::FloatCvt      1458389     13.64%     56.67% # Class of committed instruction (Count)
system.cpu.commit.committedInstType_0::FloatMult       724808      6.78%     63.45% # Class of committed instruction (Count)
system.cpu.commit.committedInstType_0::FloatMultAcc            0      0.00%     63.45% # Class of committed instruction (Count)
system.cpu.commit.committedInstType_0::FloatDiv            0      0.00%     63.45% # Class of committed instruction (Count)
system.cpu.commit.committedInstType_0::FloatMisc            0      0.00%     63.45% # Class of committed instruction (Count)
system.cpu.commit.committedInstType_0::FloatSqrt            0      0.00%     63.45% # Class of committed instruction (Count)
system.cpu.commit.committedInstType_0::SimdAdd            0      0.00%     63.45% # Class of committed instruction (Count)
system.cpu.commit.committedInstType_0::SimdAddAcc            0      0.00%     63.45% # Class of committed instruction (Count)
system.cpu.commit.committedInstType_0::SimdAlu            0      0.00%     63.45% # Class of committed instruction (Count)
system.cpu.commit.committedInstType_0::SimdCmp            0      0.00%     63.45% # Class of committed instruction (Count)
system.cpu.commit.committedInstType_0::SimdCvt            0      0.00%     63.45% # Class of committed instruction (Count)
system.cpu.commit.committedInstType_0::SimdMisc            0      0.00%     63.45% # Class of committed instruction (Count)
system.cpu.commit.committedInstType_0::SimdMult            0      0.00%     63.45% # Class of committed instruction (Count)
system.cpu.commit.committedInstType_0::SimdMultAcc            0      0.00%     63.45% # Class of committed instruction (Count)
system.cpu.commit.committedInstType_0::SimdShift            0      0.00%     63.45% # Class of committed instruction (Count)
system.cpu.commit.committedInstType_0::SimdShiftAcc            0      0.00%     63.45% # Class of committed instruction (Count)
system.cpu.commit.committedInstType_0::SimdDiv            0      0.00%     63.45% # Class of committed instruction (Count)
system.cpu.commit.committedInstType_0::SimdSqrt            0      0.00%     63.45% # Class of committed instruction (Count)
system.cpu.commit.committedInstType_0::SimdFloatAdd            0      0.00%     63.45% # Class of committed instruction (Count)
system.cpu.commit.committedInstType_0::SimdFloatAlu            0      0.00%     63.45% # Class of committed instruction (Count)
system.cpu.commit.committedInstType_0::SimdFloatCmp            0      0.00%     63.45% # Class of committed instruction (Count)
system.cpu.commit.committedInstType_0::SimdFloatCvt            0      0.00%     63.45% # Class of committed instruction (Count)
system.cpu.commit.committedInstType_0::SimdFloatDiv            0      0.00%     63.45% # Class of committed instruction (Count)
system.cpu.commit.committedInstType_0::SimdFloatMisc            0      0.00%     63.45% # Class of committed instruction (Count)
system.cpu.commit.committedInstType_0::SimdFloatMult            0      0.00%     63.45% # Class of committed instruction (Count)
system.cpu.commit.committedInstType_0::SimdFloatMultAcc            0      0.00%     63.45% # Class of committed instruction (Count)
system.cpu.commit.committedInstType_0::SimdFloatSqrt            0      0.00%     63.45% # Class of committed instruction (Count)
system.cpu.commit.committedInstType_0::SimdReduceAdd            0      0.00%     63.45% # Class of committed instruction (Count)
system.cpu.commit.committedInstType_0::SimdReduceAlu            0      0.00%     63.45% # Class of committed instruction (Count)
system.cpu.commit.committedInstType_0::SimdReduceCmp            0      0.00%     63.45% # Class of committed instruction (Count)
system.cpu.commit.committedInstType_0::SimdFloatReduceAdd            0      0.00%     63.45% # Class of committed instruction (Count)
system.cpu.commit.committedInstType_0::SimdFloatReduceCmp            0      0.00%     63.45% # Class of committed instruction (Count)
system.cpu.commit.committedInstType_0::SimdAes            0      0.00%     63.45% # Class of committed instruction (Count)
system.cpu.commit.committedInstType_0::SimdAesMix            0      0.00%     63.45% # Class of committed instruction (Count)
system.cpu.commit.committedInstType_0::SimdSha1Hash            0      0.00%     63.45% # Class of committed instruction (Count)
system.cpu.commit.committedInstType_0::SimdSha1Hash2            0      0.00%     63.45% # Class of committed instruction (Count)
system.cpu.commit.committedInstType_0::SimdSha256Hash            0      0.00%     63.45% # Class of committed instruction (Count)
system.cpu.commit.committedInstType_0::SimdSha256Hash2            0      0.00%     63.45% # Class of committed instruction (Count)
system.cpu.commit.committedInstType_0::SimdShaSigma2            0      0.00%     63.45% # Class of committed instruction (Count)
system.cpu.commit.committedInstType_0::SimdShaSigma3            0      0.00%     63.45% # Class of committed instruction (Count)
system.cpu.commit.committedInstType_0::SimdPredAlu            0      0.00%     63.45% # Class of committed instruction (Count)
system.cpu.commit.committedInstType_0::MemRead       475663      4.45%     67.90% # Class of committed instruction (Count)
system.cpu.commit.committedInstType_0::MemWrite       157060      1.47%     69.37% # Class of committed instruction (Count)
system.cpu.commit.committedInstType_0::FloatMemRead      1894633     17.72%     87.09% # Class of committed instruction (Count)
system.cpu.commit.committedInstType_0::FloatMemWrite         1206      0.01%     87.10% # Class of committed instruction (Count)
system.cpu.commit.committedInstType_0::IprAccess            0      0.00%     87.10% # Class of committed instruction (Count)
system.cpu.commit.committedInstType_0::InstPrefetch            0      0.00%     87.10% # Class of committed instruction (Count)
system.cpu.commit.committedInstType_0::FMAMul       689319      6.45%     93.55% # Class of committed instruction (Count)
system.cpu.commit.committedInstType_0::FMAAcc       689319      6.45%    100.00% # Class of committed instruction (Count)
system.cpu.commit.committedInstType_0::total     10689324                       # Class of committed instruction (Count)
system.cpu.commit.commitEligibleSamples       1022489                       # number cycles where commit BW limit reached (Cycle)
system.cpu.dcache.demandHits::cpu.data        1665503                       # number of demand (read+write) hits (Count)
system.cpu.dcache.demandHits::total           1665503                       # number of demand (read+write) hits (Count)
system.cpu.dcache.overallHits::cpu.data       1665503                       # number of overall hits (Count)
system.cpu.dcache.overallHits::total          1665503                       # number of overall hits (Count)
system.cpu.dcache.demandMisses::cpu.data      1103482                       # number of demand (read+write) misses (Count)
system.cpu.dcache.demandMisses::total         1103482                       # number of demand (read+write) misses (Count)
system.cpu.dcache.overallMisses::cpu.data      1103482                       # number of overall misses (Count)
system.cpu.dcache.overallMisses::total        1103482                       # number of overall misses (Count)
system.cpu.dcache.demandMissLatency::cpu.data  67784257298                       # number of demand (read+write) miss ticks (Tick)
system.cpu.dcache.demandMissLatency::total  67784257298                       # number of demand (read+write) miss ticks (Tick)
system.cpu.dcache.overallMissLatency::cpu.data  67784257298                       # number of overall miss ticks (Tick)
system.cpu.dcache.overallMissLatency::total  67784257298                       # number of overall miss ticks (Tick)
system.cpu.dcache.demandAccesses::cpu.data      2768985                       # number of demand (read+write) accesses (Count)
system.cpu.dcache.demandAccesses::total       2768985                       # number of demand (read+write) accesses (Count)
system.cpu.dcache.overallAccesses::cpu.data      2768985                       # number of overall (read+write) accesses (Count)
system.cpu.dcache.overallAccesses::total      2768985                       # number of overall (read+write) accesses (Count)
system.cpu.dcache.demandMissRate::cpu.data     0.398515                       # miss rate for demand accesses (Ratio)
system.cpu.dcache.demandMissRate::total      0.398515                       # miss rate for demand accesses (Ratio)
system.cpu.dcache.overallMissRate::cpu.data     0.398515                       # miss rate for overall accesses (Ratio)
system.cpu.dcache.overallMissRate::total     0.398515                       # miss rate for overall accesses (Ratio)
system.cpu.dcache.demandAvgMissLatency::cpu.data 61427.605795                       # average overall miss latency in ticks ((Tick/Count))
system.cpu.dcache.demandAvgMissLatency::total 61427.605795                       # average overall miss latency in ticks ((Tick/Count))
system.cpu.dcache.overallAvgMissLatency::cpu.data 61427.605795                       # average overall miss latency ((Tick/Count))
system.cpu.dcache.overallAvgMissLatency::total 61427.605795                       # average overall miss latency ((Tick/Count))
system.cpu.dcache.blockedCycles::no_mshrs          167                       # number of cycles access was blocked (Cycle)
system.cpu.dcache.blockedCycles::no_targets       136428                       # number of cycles access was blocked (Cycle)
system.cpu.dcache.blockedCauses::no_mshrs           68                       # number of times access was blocked (Count)
system.cpu.dcache.blockedCauses::no_targets         2928                       # number of times access was blocked (Count)
system.cpu.dcache.avgBlocked::no_mshrs       2.455882                       # average number of cycles each access was blocked ((Cycle/Count))
system.cpu.dcache.avgBlocked::no_targets    46.594262                       # average number of cycles each access was blocked ((Cycle/Count))
system.cpu.dcache.writebacks::writebacks       131741                       # number of writebacks (Count)
system.cpu.dcache.writebacks::total            131741                       # number of writebacks (Count)
system.cpu.dcache.demandMshrHits::cpu.data       969691                       # number of demand (read+write) MSHR hits (Count)
system.cpu.dcache.demandMshrHits::total        969691                       # number of demand (read+write) MSHR hits (Count)
system.cpu.dcache.overallMshrHits::cpu.data       969691                       # number of overall MSHR hits (Count)
system.cpu.dcache.overallMshrHits::total       969691                       # number of overall MSHR hits (Count)
system.cpu.dcache.demandMshrMisses::cpu.data       133791                       # number of demand (read+write) MSHR misses (Count)
system.cpu.dcache.demandMshrMisses::total       133791                       # number of demand (read+write) MSHR misses (Count)
system.cpu.dcache.overallMshrMisses::cpu.data       133791                       # number of overall MSHR misses (Count)
system.cpu.dcache.overallMshrMisses::total       133791                       # number of overall MSHR misses (Count)
system.cpu.dcache.overallMshrUncacheable::cpu.data            2                       # number of overall MSHR uncacheable misses (Count)
system.cpu.dcache.overallMshrUncacheable::total            2                       # number of overall MSHR uncacheable misses (Count)
system.cpu.dcache.demandMshrMissLatency::cpu.data   9380711856                       # number of demand (read+write) MSHR miss ticks (Tick)
system.cpu.dcache.demandMshrMissLatency::total   9380711856                       # number of demand (read+write) MSHR miss ticks (Tick)
system.cpu.dcache.overallMshrMissLatency::cpu.data   9380711856                       # number of overall MSHR miss ticks (Tick)
system.cpu.dcache.overallMshrMissLatency::total   9380711856                       # number of overall MSHR miss ticks (Tick)
system.cpu.dcache.demandMshrMissRate::cpu.data     0.048318                       # mshr miss ratio for demand accesses (Ratio)
system.cpu.dcache.demandMshrMissRate::total     0.048318                       # mshr miss ratio for demand accesses (Ratio)
system.cpu.dcache.overallMshrMissRate::cpu.data     0.048318                       # mshr miss ratio for overall accesses (Ratio)
system.cpu.dcache.overallMshrMissRate::total     0.048318                       # mshr miss ratio for overall accesses (Ratio)
system.cpu.dcache.demandAvgMshrMissLatency::cpu.data 70114.670314                       # average overall mshr miss latency ((Tick/Count))
system.cpu.dcache.demandAvgMshrMissLatency::total 70114.670314                       # average overall mshr miss latency ((Tick/Count))
system.cpu.dcache.overallAvgMshrMissLatency::cpu.data 70114.670314                       # average overall mshr miss latency ((Tick/Count))
system.cpu.dcache.overallAvgMshrMissLatency::total 70114.670314                       # average overall mshr miss latency ((Tick/Count))
system.cpu.dcache.replacements                 131741                       # number of replacements (Count)
system.cpu.dcache.ReadReq.hits::cpu.data      1554960                       # number of ReadReq hits (Count)
system.cpu.dcache.ReadReq.hits::total         1554960                       # number of ReadReq hits (Count)
system.cpu.dcache.ReadReq.misses::cpu.data      1055761                       # number of ReadReq misses (Count)
system.cpu.dcache.ReadReq.misses::total       1055761                       # number of ReadReq misses (Count)
system.cpu.dcache.ReadReq.missLatency::cpu.data  63668694500                       # number of ReadReq miss ticks (Tick)
system.cpu.dcache.ReadReq.missLatency::total  63668694500                       # number of ReadReq miss ticks (Tick)
system.cpu.dcache.ReadReq.missLatencyDist::samples      1055753                       # number of ReadReq miss ticks histogram (Tick)
system.cpu.dcache.ReadReq.missLatencyDist::mean   120.612860                       # number of ReadReq miss ticks histogram (Tick)
system.cpu.dcache.ReadReq.missLatencyDist::stdev    90.919900                       # number of ReadReq miss ticks histogram (Tick)
system.cpu.dcache.ReadReq.missLatencyDist::0-9        20226      1.92%      1.92% # number of ReadReq miss ticks histogram (Tick)
system.cpu.dcache.ReadReq.missLatencyDist::10-19        48349      4.58%      6.50% # number of ReadReq miss ticks histogram (Tick)
system.cpu.dcache.ReadReq.missLatencyDist::20-29        42359      4.01%     10.51% # number of ReadReq miss ticks histogram (Tick)
system.cpu.dcache.ReadReq.missLatencyDist::30-39        15225      1.44%     11.95% # number of ReadReq miss ticks histogram (Tick)
system.cpu.dcache.ReadReq.missLatencyDist::40-49         9777      0.93%     12.88% # number of ReadReq miss ticks histogram (Tick)
system.cpu.dcache.ReadReq.missLatencyDist::50-59        10691      1.01%     13.89% # number of ReadReq miss ticks histogram (Tick)
system.cpu.dcache.ReadReq.missLatencyDist::60-69        24483      2.32%     16.21% # number of ReadReq miss ticks histogram (Tick)
system.cpu.dcache.ReadReq.missLatencyDist::70-79        43987      4.17%     20.37% # number of ReadReq miss ticks histogram (Tick)
system.cpu.dcache.ReadReq.missLatencyDist::80-89        59402      5.63%     26.00% # number of ReadReq miss ticks histogram (Tick)
system.cpu.dcache.ReadReq.missLatencyDist::90-99        89164      8.45%     34.45% # number of ReadReq miss ticks histogram (Tick)
system.cpu.dcache.ReadReq.missLatencyDist::100-109       127199     12.05%     46.49% # number of ReadReq miss ticks histogram (Tick)
system.cpu.dcache.ReadReq.missLatencyDist::110-119       145949     13.82%     60.32% # number of ReadReq miss ticks histogram (Tick)
system.cpu.dcache.ReadReq.missLatencyDist::120-129       170584     16.16%     76.48% # number of ReadReq miss ticks histogram (Tick)
system.cpu.dcache.ReadReq.missLatencyDist::130-139        28450      2.69%     79.17% # number of ReadReq miss ticks histogram (Tick)
system.cpu.dcache.ReadReq.missLatencyDist::140-149        27051      2.56%     81.73% # number of ReadReq miss ticks histogram (Tick)
system.cpu.dcache.ReadReq.missLatencyDist::150-159        23150      2.19%     83.93% # number of ReadReq miss ticks histogram (Tick)
system.cpu.dcache.ReadReq.missLatencyDist::160-169        12897      1.22%     85.15% # number of ReadReq miss ticks histogram (Tick)
system.cpu.dcache.ReadReq.missLatencyDist::170-179        29255      2.77%     87.92% # number of ReadReq miss ticks histogram (Tick)
system.cpu.dcache.ReadReq.missLatencyDist::180-189        23377      2.21%     90.13% # number of ReadReq miss ticks histogram (Tick)
system.cpu.dcache.ReadReq.missLatencyDist::190-199         9850      0.93%     91.07% # number of ReadReq miss ticks histogram (Tick)
system.cpu.dcache.ReadReq.missLatencyDist::200-209         7771      0.74%     91.80% # number of ReadReq miss ticks histogram (Tick)
system.cpu.dcache.ReadReq.missLatencyDist::210-219         8474      0.80%     92.60% # number of ReadReq miss ticks histogram (Tick)
system.cpu.dcache.ReadReq.missLatencyDist::220-229         9289      0.88%     93.48% # number of ReadReq miss ticks histogram (Tick)
system.cpu.dcache.ReadReq.missLatencyDist::230-239         9406      0.89%     94.37% # number of ReadReq miss ticks histogram (Tick)
system.cpu.dcache.ReadReq.missLatencyDist::240-249         9822      0.93%     95.31% # number of ReadReq miss ticks histogram (Tick)
system.cpu.dcache.ReadReq.missLatencyDist::250-259         8950      0.85%     96.15% # number of ReadReq miss ticks histogram (Tick)
system.cpu.dcache.ReadReq.missLatencyDist::260-269         7099      0.67%     96.83% # number of ReadReq miss ticks histogram (Tick)
system.cpu.dcache.ReadReq.missLatencyDist::270-279         4657      0.44%     97.27% # number of ReadReq miss ticks histogram (Tick)
system.cpu.dcache.ReadReq.missLatencyDist::280-289         4178      0.40%     97.66% # number of ReadReq miss ticks histogram (Tick)
system.cpu.dcache.ReadReq.missLatencyDist::290-299         3581      0.34%     98.00% # number of ReadReq miss ticks histogram (Tick)
system.cpu.dcache.ReadReq.missLatencyDist::300-309         2867      0.27%     98.27% # number of ReadReq miss ticks histogram (Tick)
system.cpu.dcache.ReadReq.missLatencyDist::310-319         2465      0.23%     98.51% # number of ReadReq miss ticks histogram (Tick)
system.cpu.dcache.ReadReq.missLatencyDist::320-329         1918      0.18%     98.69% # number of ReadReq miss ticks histogram (Tick)
system.cpu.dcache.ReadReq.missLatencyDist::330-339         1255      0.12%     98.81% # number of ReadReq miss ticks histogram (Tick)
system.cpu.dcache.ReadReq.missLatencyDist::340-349          619      0.06%     98.87% # number of ReadReq miss ticks histogram (Tick)
system.cpu.dcache.ReadReq.missLatencyDist::350-359          458      0.04%     98.91% # number of ReadReq miss ticks histogram (Tick)
system.cpu.dcache.ReadReq.missLatencyDist::360-369          284      0.03%     98.94% # number of ReadReq miss ticks histogram (Tick)
system.cpu.dcache.ReadReq.missLatencyDist::370-379          135      0.01%     98.95% # number of ReadReq miss ticks histogram (Tick)
system.cpu.dcache.ReadReq.missLatencyDist::380-389           75      0.01%     98.96% # number of ReadReq miss ticks histogram (Tick)
system.cpu.dcache.ReadReq.missLatencyDist::390-399           69      0.01%     98.96% # number of ReadReq miss ticks histogram (Tick)
system.cpu.dcache.ReadReq.missLatencyDist::400-409           50      0.00%     98.97% # number of ReadReq miss ticks histogram (Tick)
system.cpu.dcache.ReadReq.missLatencyDist::410-419           33      0.00%     98.97% # number of ReadReq miss ticks histogram (Tick)
system.cpu.dcache.ReadReq.missLatencyDist::420-429           17      0.00%     98.97% # number of ReadReq miss ticks histogram (Tick)
system.cpu.dcache.ReadReq.missLatencyDist::430-439           11      0.00%     98.97% # number of ReadReq miss ticks histogram (Tick)
system.cpu.dcache.ReadReq.missLatencyDist::440-449           11      0.00%     98.97% # number of ReadReq miss ticks histogram (Tick)
system.cpu.dcache.ReadReq.missLatencyDist::450-459            7      0.00%     98.97% # number of ReadReq miss ticks histogram (Tick)
system.cpu.dcache.ReadReq.missLatencyDist::460-469            5      0.00%     98.97% # number of ReadReq miss ticks histogram (Tick)
system.cpu.dcache.ReadReq.missLatencyDist::470-479            8      0.00%     98.98% # number of ReadReq miss ticks histogram (Tick)
system.cpu.dcache.ReadReq.missLatencyDist::480-489            2      0.00%     98.98% # number of ReadReq miss ticks histogram (Tick)
system.cpu.dcache.ReadReq.missLatencyDist::490-499            1      0.00%     98.98% # number of ReadReq miss ticks histogram (Tick)
system.cpu.dcache.ReadReq.missLatencyDist::500-509            1      0.00%     98.98% # number of ReadReq miss ticks histogram (Tick)
system.cpu.dcache.ReadReq.missLatencyDist::510-519            2      0.00%     98.98% # number of ReadReq miss ticks histogram (Tick)
system.cpu.dcache.ReadReq.missLatencyDist::520-529            1      0.00%     98.98% # number of ReadReq miss ticks histogram (Tick)
system.cpu.dcache.ReadReq.missLatencyDist::530-539            1      0.00%     98.98% # number of ReadReq miss ticks histogram (Tick)
system.cpu.dcache.ReadReq.missLatencyDist::560-569            1      0.00%     98.98% # number of ReadReq miss ticks histogram (Tick)
system.cpu.dcache.ReadReq.missLatencyDist::570-579            1      0.00%     98.98% # number of ReadReq miss ticks histogram (Tick)
system.cpu.dcache.ReadReq.missLatencyDist::580-589            3      0.00%     98.98% # number of ReadReq miss ticks histogram (Tick)
system.cpu.dcache.ReadReq.missLatencyDist::590-599            1      0.00%     98.98% # number of ReadReq miss ticks histogram (Tick)
system.cpu.dcache.ReadReq.missLatencyDist::600-609            3      0.00%     98.98% # number of ReadReq miss ticks histogram (Tick)
system.cpu.dcache.ReadReq.missLatencyDist::610-619            7      0.00%     98.98% # number of ReadReq miss ticks histogram (Tick)
system.cpu.dcache.ReadReq.missLatencyDist::620-629           10      0.00%     98.98% # number of ReadReq miss ticks histogram (Tick)
system.cpu.dcache.ReadReq.missLatencyDist::630-639           10      0.00%     98.98% # number of ReadReq miss ticks histogram (Tick)
system.cpu.dcache.ReadReq.missLatencyDist::640-649           35      0.00%     98.98% # number of ReadReq miss ticks histogram (Tick)
system.cpu.dcache.ReadReq.missLatencyDist::650-659           56      0.01%     98.99% # number of ReadReq miss ticks histogram (Tick)
system.cpu.dcache.ReadReq.missLatencyDist::660-669           73      0.01%     99.00% # number of ReadReq miss ticks histogram (Tick)
system.cpu.dcache.ReadReq.missLatencyDist::670-679           57      0.01%     99.00% # number of ReadReq miss ticks histogram (Tick)
system.cpu.dcache.ReadReq.missLatencyDist::680-689           60      0.01%     99.01% # number of ReadReq miss ticks histogram (Tick)
system.cpu.dcache.ReadReq.missLatencyDist::690-699           68      0.01%     99.01% # number of ReadReq miss ticks histogram (Tick)
system.cpu.dcache.ReadReq.missLatencyDist::700-709          104      0.01%     99.02% # number of ReadReq miss ticks histogram (Tick)
system.cpu.dcache.ReadReq.missLatencyDist::710-719          186      0.02%     99.04% # number of ReadReq miss ticks histogram (Tick)
system.cpu.dcache.ReadReq.missLatencyDist::720-729          331      0.03%     99.07% # number of ReadReq miss ticks histogram (Tick)
system.cpu.dcache.ReadReq.missLatencyDist::730-739          501      0.05%     99.12% # number of ReadReq miss ticks histogram (Tick)
system.cpu.dcache.ReadReq.missLatencyDist::740-749          638      0.06%     99.18% # number of ReadReq miss ticks histogram (Tick)
system.cpu.dcache.ReadReq.missLatencyDist::750-759          735      0.07%     99.25% # number of ReadReq miss ticks histogram (Tick)
system.cpu.dcache.ReadReq.missLatencyDist::760-769          827      0.08%     99.33% # number of ReadReq miss ticks histogram (Tick)
system.cpu.dcache.ReadReq.missLatencyDist::770-779          778      0.07%     99.40% # number of ReadReq miss ticks histogram (Tick)
system.cpu.dcache.ReadReq.missLatencyDist::780-789          734      0.07%     99.47% # number of ReadReq miss ticks histogram (Tick)
system.cpu.dcache.ReadReq.missLatencyDist::790-799          696      0.07%     99.54% # number of ReadReq miss ticks histogram (Tick)
system.cpu.dcache.ReadReq.missLatencyDist::800-809          630      0.06%     99.60% # number of ReadReq miss ticks histogram (Tick)
system.cpu.dcache.ReadReq.missLatencyDist::810-819          617      0.06%     99.65% # number of ReadReq miss ticks histogram (Tick)
system.cpu.dcache.ReadReq.missLatencyDist::820-829          575      0.05%     99.71% # number of ReadReq miss ticks histogram (Tick)
system.cpu.dcache.ReadReq.missLatencyDist::830-839          560      0.05%     99.76% # number of ReadReq miss ticks histogram (Tick)
system.cpu.dcache.ReadReq.missLatencyDist::840-849          527      0.05%     99.81% # number of ReadReq miss ticks histogram (Tick)
system.cpu.dcache.ReadReq.missLatencyDist::850-859          482      0.05%     99.86% # number of ReadReq miss ticks histogram (Tick)
system.cpu.dcache.ReadReq.missLatencyDist::860-869          352      0.03%     99.89% # number of ReadReq miss ticks histogram (Tick)
system.cpu.dcache.ReadReq.missLatencyDist::870-879          260      0.02%     99.92% # number of ReadReq miss ticks histogram (Tick)
system.cpu.dcache.ReadReq.missLatencyDist::880-889          127      0.01%     99.93% # number of ReadReq miss ticks histogram (Tick)
system.cpu.dcache.ReadReq.missLatencyDist::890-899           50      0.00%     99.93% # number of ReadReq miss ticks histogram (Tick)
system.cpu.dcache.ReadReq.missLatencyDist::900-909           39      0.00%     99.94% # number of ReadReq miss ticks histogram (Tick)
system.cpu.dcache.ReadReq.missLatencyDist::910-919           28      0.00%     99.94% # number of ReadReq miss ticks histogram (Tick)
system.cpu.dcache.ReadReq.missLatencyDist::920-929           42      0.00%     99.94% # number of ReadReq miss ticks histogram (Tick)
system.cpu.dcache.ReadReq.missLatencyDist::930-939           41      0.00%     99.95% # number of ReadReq miss ticks histogram (Tick)
system.cpu.dcache.ReadReq.missLatencyDist::940-949           18      0.00%     99.95% # number of ReadReq miss ticks histogram (Tick)
system.cpu.dcache.ReadReq.missLatencyDist::950-959           17      0.00%     99.95% # number of ReadReq miss ticks histogram (Tick)
system.cpu.dcache.ReadReq.missLatencyDist::960-969           42      0.00%     99.95% # number of ReadReq miss ticks histogram (Tick)
system.cpu.dcache.ReadReq.missLatencyDist::970-979           35      0.00%     99.96% # number of ReadReq miss ticks histogram (Tick)
system.cpu.dcache.ReadReq.missLatencyDist::980-989           55      0.01%     99.96% # number of ReadReq miss ticks histogram (Tick)
system.cpu.dcache.ReadReq.missLatencyDist::990-999           78      0.01%     99.97% # number of ReadReq miss ticks histogram (Tick)
system.cpu.dcache.ReadReq.missLatencyDist::overflows          316      0.03%    100.00% # number of ReadReq miss ticks histogram (Tick)
system.cpu.dcache.ReadReq.missLatencyDist::min_value            5                       # number of ReadReq miss ticks histogram (Tick)
system.cpu.dcache.ReadReq.missLatencyDist::max_value         1119                       # number of ReadReq miss ticks histogram (Tick)
system.cpu.dcache.ReadReq.missLatencyDist::total      1055753                       # number of ReadReq miss ticks histogram (Tick)
system.cpu.dcache.ReadReq.accesses::cpu.data      2610721                       # number of ReadReq accesses(hits+misses) (Count)
system.cpu.dcache.ReadReq.accesses::total      2610721                       # number of ReadReq accesses(hits+misses) (Count)
system.cpu.dcache.ReadReq.missRate::cpu.data     0.404394                       # miss rate for ReadReq accesses (Ratio)
system.cpu.dcache.ReadReq.missRate::total     0.404394                       # miss rate for ReadReq accesses (Ratio)
system.cpu.dcache.ReadReq.avgMissLatency::cpu.data 60305.973132                       # average ReadReq miss latency ((Tick/Count))
system.cpu.dcache.ReadReq.avgMissLatency::total 60305.973132                       # average ReadReq miss latency ((Tick/Count))
system.cpu.dcache.ReadReq.mshrHits::cpu.data       930062                       # number of ReadReq MSHR hits (Count)
system.cpu.dcache.ReadReq.mshrHits::total       930062                       # number of ReadReq MSHR hits (Count)
system.cpu.dcache.ReadReq.mshrMisses::cpu.data       125699                       # number of ReadReq MSHR misses (Count)
system.cpu.dcache.ReadReq.mshrMisses::total       125699                       # number of ReadReq MSHR misses (Count)
system.cpu.dcache.ReadReq.mshrMissLatency::cpu.data   8718135500                       # number of ReadReq MSHR miss ticks (Tick)
system.cpu.dcache.ReadReq.mshrMissLatency::total   8718135500                       # number of ReadReq MSHR miss ticks (Tick)
system.cpu.dcache.ReadReq.mshrMissRate::cpu.data     0.048147                       # mshr miss rate for ReadReq accesses (Ratio)
system.cpu.dcache.ReadReq.mshrMissRate::total     0.048147                       # mshr miss rate for ReadReq accesses (Ratio)
system.cpu.dcache.ReadReq.avgMshrMissLatency::cpu.data 69357.238323                       # average ReadReq mshr miss latency ((Tick/Count))
system.cpu.dcache.ReadReq.avgMshrMissLatency::total 69357.238323                       # average ReadReq mshr miss latency ((Tick/Count))
system.cpu.dcache.SwapReq.hits::cpu.data           20                       # number of SwapReq hits (Count)
system.cpu.dcache.SwapReq.hits::total              20                       # number of SwapReq hits (Count)
system.cpu.dcache.SwapReq.accesses::cpu.data           20                       # number of SwapReq accesses(hits+misses) (Count)
system.cpu.dcache.SwapReq.accesses::total           20                       # number of SwapReq accesses(hits+misses) (Count)
system.cpu.dcache.WriteReq.hits::cpu.data       110543                       # number of WriteReq hits (Count)
system.cpu.dcache.WriteReq.hits::total         110543                       # number of WriteReq hits (Count)
system.cpu.dcache.WriteReq.misses::cpu.data        47721                       # number of WriteReq misses (Count)
system.cpu.dcache.WriteReq.misses::total        47721                       # number of WriteReq misses (Count)
system.cpu.dcache.WriteReq.missLatency::cpu.data   4115562798                       # number of WriteReq miss ticks (Tick)
system.cpu.dcache.WriteReq.missLatency::total   4115562798                       # number of WriteReq miss ticks (Tick)
system.cpu.dcache.WriteReq.missLatencyDist::samples        47721                       # number of WriteReq miss ticks histogram (Tick)
system.cpu.dcache.WriteReq.missLatencyDist::mean   172.481989                       # number of WriteReq miss ticks histogram (Tick)
system.cpu.dcache.WriteReq.missLatencyDist::stdev   115.031130                       # number of WriteReq miss ticks histogram (Tick)
system.cpu.dcache.WriteReq.missLatencyDist::0-9          116      0.24%      0.24% # number of WriteReq miss ticks histogram (Tick)
system.cpu.dcache.WriteReq.missLatencyDist::10-19         1348      2.82%      3.07% # number of WriteReq miss ticks histogram (Tick)
system.cpu.dcache.WriteReq.missLatencyDist::20-29         3720      7.80%     10.86% # number of WriteReq miss ticks histogram (Tick)
system.cpu.dcache.WriteReq.missLatencyDist::30-39          261      0.55%     11.41% # number of WriteReq miss ticks histogram (Tick)
system.cpu.dcache.WriteReq.missLatencyDist::40-49          477      1.00%     12.41% # number of WriteReq miss ticks histogram (Tick)
system.cpu.dcache.WriteReq.missLatencyDist::50-59          629      1.32%     13.73% # number of WriteReq miss ticks histogram (Tick)
system.cpu.dcache.WriteReq.missLatencyDist::60-69         1024      2.15%     15.87% # number of WriteReq miss ticks histogram (Tick)
system.cpu.dcache.WriteReq.missLatencyDist::70-79          434      0.91%     16.78% # number of WriteReq miss ticks histogram (Tick)
system.cpu.dcache.WriteReq.missLatencyDist::80-89           47      0.10%     16.88% # number of WriteReq miss ticks histogram (Tick)
system.cpu.dcache.WriteReq.missLatencyDist::90-99           68      0.14%     17.02% # number of WriteReq miss ticks histogram (Tick)
system.cpu.dcache.WriteReq.missLatencyDist::100-109           77      0.16%     17.19% # number of WriteReq miss ticks histogram (Tick)
system.cpu.dcache.WriteReq.missLatencyDist::110-119         2857      5.99%     23.17% # number of WriteReq miss ticks histogram (Tick)
system.cpu.dcache.WriteReq.missLatencyDist::120-129        10826     22.69%     45.86% # number of WriteReq miss ticks histogram (Tick)
system.cpu.dcache.WriteReq.missLatencyDist::130-139         1941      4.07%     49.93% # number of WriteReq miss ticks histogram (Tick)
system.cpu.dcache.WriteReq.missLatencyDist::140-149         1912      4.01%     53.93% # number of WriteReq miss ticks histogram (Tick)
system.cpu.dcache.WriteReq.missLatencyDist::150-159         1042      2.18%     56.12% # number of WriteReq miss ticks histogram (Tick)
system.cpu.dcache.WriteReq.missLatencyDist::160-169          354      0.74%     56.86% # number of WriteReq miss ticks histogram (Tick)
system.cpu.dcache.WriteReq.missLatencyDist::170-179         1786      3.74%     60.60% # number of WriteReq miss ticks histogram (Tick)
system.cpu.dcache.WriteReq.missLatencyDist::180-189         2746      5.75%     66.35% # number of WriteReq miss ticks histogram (Tick)
system.cpu.dcache.WriteReq.missLatencyDist::190-199          829      1.74%     68.09% # number of WriteReq miss ticks histogram (Tick)
system.cpu.dcache.WriteReq.missLatencyDist::200-209          317      0.66%     68.76% # number of WriteReq miss ticks histogram (Tick)
system.cpu.dcache.WriteReq.missLatencyDist::210-219         1037      2.17%     70.93% # number of WriteReq miss ticks histogram (Tick)
system.cpu.dcache.WriteReq.missLatencyDist::220-229          767      1.61%     72.54% # number of WriteReq miss ticks histogram (Tick)
system.cpu.dcache.WriteReq.missLatencyDist::230-239          441      0.92%     73.46% # number of WriteReq miss ticks histogram (Tick)
system.cpu.dcache.WriteReq.missLatencyDist::240-249         1274      2.67%     76.13% # number of WriteReq miss ticks histogram (Tick)
system.cpu.dcache.WriteReq.missLatencyDist::250-259         1398      2.93%     79.06% # number of WriteReq miss ticks histogram (Tick)
system.cpu.dcache.WriteReq.missLatencyDist::260-269          811      1.70%     80.76% # number of WriteReq miss ticks histogram (Tick)
system.cpu.dcache.WriteReq.missLatencyDist::270-279         1457      3.05%     83.81% # number of WriteReq miss ticks histogram (Tick)
system.cpu.dcache.WriteReq.missLatencyDist::280-289         1966      4.12%     87.93% # number of WriteReq miss ticks histogram (Tick)
system.cpu.dcache.WriteReq.missLatencyDist::290-299         1216      2.55%     90.48% # number of WriteReq miss ticks histogram (Tick)
system.cpu.dcache.WriteReq.missLatencyDist::300-309          819      1.72%     92.20% # number of WriteReq miss ticks histogram (Tick)
system.cpu.dcache.WriteReq.missLatencyDist::310-319          560      1.17%     93.37% # number of WriteReq miss ticks histogram (Tick)
system.cpu.dcache.WriteReq.missLatencyDist::320-329          551      1.15%     94.52% # number of WriteReq miss ticks histogram (Tick)
system.cpu.dcache.WriteReq.missLatencyDist::330-339          497      1.04%     95.57% # number of WriteReq miss ticks histogram (Tick)
system.cpu.dcache.WriteReq.missLatencyDist::340-349          777      1.63%     97.19% # number of WriteReq miss ticks histogram (Tick)
system.cpu.dcache.WriteReq.missLatencyDist::350-359          605      1.27%     98.46% # number of WriteReq miss ticks histogram (Tick)
system.cpu.dcache.WriteReq.missLatencyDist::360-369          155      0.32%     98.79% # number of WriteReq miss ticks histogram (Tick)
system.cpu.dcache.WriteReq.missLatencyDist::370-379           43      0.09%     98.88% # number of WriteReq miss ticks histogram (Tick)
system.cpu.dcache.WriteReq.missLatencyDist::380-389           27      0.06%     98.93% # number of WriteReq miss ticks histogram (Tick)
system.cpu.dcache.WriteReq.missLatencyDist::390-399           55      0.12%     99.05% # number of WriteReq miss ticks histogram (Tick)
system.cpu.dcache.WriteReq.missLatencyDist::400-409            1      0.00%     99.05% # number of WriteReq miss ticks histogram (Tick)
system.cpu.dcache.WriteReq.missLatencyDist::410-419            3      0.01%     99.06% # number of WriteReq miss ticks histogram (Tick)
system.cpu.dcache.WriteReq.missLatencyDist::680-689            2      0.00%     99.06% # number of WriteReq miss ticks histogram (Tick)
system.cpu.dcache.WriteReq.missLatencyDist::690-699            2      0.00%     99.07% # number of WriteReq miss ticks histogram (Tick)
system.cpu.dcache.WriteReq.missLatencyDist::720-729            3      0.01%     99.07% # number of WriteReq miss ticks histogram (Tick)
system.cpu.dcache.WriteReq.missLatencyDist::730-739            5      0.01%     99.08% # number of WriteReq miss ticks histogram (Tick)
system.cpu.dcache.WriteReq.missLatencyDist::740-749            3      0.01%     99.09% # number of WriteReq miss ticks histogram (Tick)
system.cpu.dcache.WriteReq.missLatencyDist::750-759            2      0.00%     99.09% # number of WriteReq miss ticks histogram (Tick)
system.cpu.dcache.WriteReq.missLatencyDist::770-779            4      0.01%     99.10% # number of WriteReq miss ticks histogram (Tick)
system.cpu.dcache.WriteReq.missLatencyDist::780-789            4      0.01%     99.11% # number of WriteReq miss ticks histogram (Tick)
system.cpu.dcache.WriteReq.missLatencyDist::790-799            7      0.01%     99.12% # number of WriteReq miss ticks histogram (Tick)
system.cpu.dcache.WriteReq.missLatencyDist::800-809            5      0.01%     99.13% # number of WriteReq miss ticks histogram (Tick)
system.cpu.dcache.WriteReq.missLatencyDist::810-819            7      0.01%     99.15% # number of WriteReq miss ticks histogram (Tick)
system.cpu.dcache.WriteReq.missLatencyDist::820-829           71      0.15%     99.30% # number of WriteReq miss ticks histogram (Tick)
system.cpu.dcache.WriteReq.missLatencyDist::830-839           55      0.12%     99.41% # number of WriteReq miss ticks histogram (Tick)
system.cpu.dcache.WriteReq.missLatencyDist::840-849           72      0.15%     99.56% # number of WriteReq miss ticks histogram (Tick)
system.cpu.dcache.WriteReq.missLatencyDist::850-859           17      0.04%     99.60% # number of WriteReq miss ticks histogram (Tick)
system.cpu.dcache.WriteReq.missLatencyDist::860-869            3      0.01%     99.61% # number of WriteReq miss ticks histogram (Tick)
system.cpu.dcache.WriteReq.missLatencyDist::870-879            1      0.00%     99.61% # number of WriteReq miss ticks histogram (Tick)
system.cpu.dcache.WriteReq.missLatencyDist::880-889           48      0.10%     99.71% # number of WriteReq miss ticks histogram (Tick)
system.cpu.dcache.WriteReq.missLatencyDist::890-899           17      0.04%     99.74% # number of WriteReq miss ticks histogram (Tick)
system.cpu.dcache.WriteReq.missLatencyDist::930-939            1      0.00%     99.75% # number of WriteReq miss ticks histogram (Tick)
system.cpu.dcache.WriteReq.missLatencyDist::940-949            1      0.00%     99.75% # number of WriteReq miss ticks histogram (Tick)
system.cpu.dcache.WriteReq.missLatencyDist::990-999            8      0.02%     99.77% # number of WriteReq miss ticks histogram (Tick)
system.cpu.dcache.WriteReq.missLatencyDist::overflows          112      0.23%    100.00% # number of WriteReq miss ticks histogram (Tick)
system.cpu.dcache.WriteReq.missLatencyDist::min_value            6                       # number of WriteReq miss ticks histogram (Tick)
system.cpu.dcache.WriteReq.missLatencyDist::max_value         1076                       # number of WriteReq miss ticks histogram (Tick)
system.cpu.dcache.WriteReq.missLatencyDist::total        47721                       # number of WriteReq miss ticks histogram (Tick)
system.cpu.dcache.WriteReq.accesses::cpu.data       158264                       # number of WriteReq accesses(hits+misses) (Count)
system.cpu.dcache.WriteReq.accesses::total       158264                       # number of WriteReq accesses(hits+misses) (Count)
system.cpu.dcache.WriteReq.missRate::cpu.data     0.301528                       # miss rate for WriteReq accesses (Ratio)
system.cpu.dcache.WriteReq.missRate::total     0.301528                       # miss rate for WriteReq accesses (Ratio)
system.cpu.dcache.WriteReq.avgMissLatency::cpu.data 86242.174263                       # average WriteReq miss latency ((Tick/Count))
system.cpu.dcache.WriteReq.avgMissLatency::total 86242.174263                       # average WriteReq miss latency ((Tick/Count))
system.cpu.dcache.WriteReq.mshrHits::cpu.data        39629                       # number of WriteReq MSHR hits (Count)
system.cpu.dcache.WriteReq.mshrHits::total        39629                       # number of WriteReq MSHR hits (Count)
system.cpu.dcache.WriteReq.mshrMisses::cpu.data         8092                       # number of WriteReq MSHR misses (Count)
system.cpu.dcache.WriteReq.mshrMisses::total         8092                       # number of WriteReq MSHR misses (Count)
system.cpu.dcache.WriteReq.mshrUncacheable::cpu.data            2                       # number of WriteReq MSHR uncacheable (Count)
system.cpu.dcache.WriteReq.mshrUncacheable::total            2                       # number of WriteReq MSHR uncacheable (Count)
system.cpu.dcache.WriteReq.mshrMissLatency::cpu.data    662576356                       # number of WriteReq MSHR miss ticks (Tick)
system.cpu.dcache.WriteReq.mshrMissLatency::total    662576356                       # number of WriteReq MSHR miss ticks (Tick)
system.cpu.dcache.WriteReq.mshrMissRate::cpu.data     0.051130                       # mshr miss rate for WriteReq accesses (Ratio)
system.cpu.dcache.WriteReq.mshrMissRate::total     0.051130                       # mshr miss rate for WriteReq accesses (Ratio)
system.cpu.dcache.WriteReq.avgMshrMissLatency::cpu.data 81880.419674                       # average WriteReq mshr miss latency ((Tick/Count))
system.cpu.dcache.WriteReq.avgMshrMissLatency::total 81880.419674                       # average WriteReq mshr miss latency ((Tick/Count))
[...]
system.mem_ctrls.dram.bytesPerActivate::samples        71241                       # Bytes accessed per row activation (Byte)
system.mem_ctrls.dram.bytesPerActivate::mean   213.347707                       # Bytes accessed per row activation (Byte)
system.mem_ctrls.dram.bytesPerActivate::gmean   131.376485                       # Bytes accessed per row activation (Byte)
system.mem_ctrls.dram.bytesPerActivate::stdev   263.489617                       # Bytes accessed per row activation (Byte)
system.mem_ctrls.dram.bytesPerActivate::0-127        35139     49.32%     49.32% # Bytes accessed per row activation (Byte)
system.mem_ctrls.dram.bytesPerActivate::128-255        19060     26.75%     76.08% # Bytes accessed per row activation (Byte)
system.mem_ctrls.dram.bytesPerActivate::256-383         5654      7.94%     84.01% # Bytes accessed per row activation (Byte)
system.mem_ctrls.dram.bytesPerActivate::384-511         2860      4.01%     88.03% # Bytes accessed per row activation (Byte)
system.mem_ctrls.dram.bytesPerActivate::512-639         1602      2.25%     90.28% # Bytes accessed per row activation (Byte)
system.mem_ctrls.dram.bytesPerActivate::640-767          935      1.31%     91.59% # Bytes accessed per row activation (Byte)
system.mem_ctrls.dram.bytesPerActivate::768-895          920      1.29%     92.88% # Bytes accessed per row activation (Byte)
system.mem_ctrls.dram.bytesPerActivate::896-1023          684      0.96%     93.84% # Bytes accessed per row activation (Byte)
system.mem_ctrls.dram.bytesPerActivate::1024-1151         4387      6.16%    100.00% # Bytes accessed per row activation (Byte)
system.mem_ctrls.dram.bytesPerActivate::total        71241                       # Bytes accessed per row activation (Byte)
system.mem_ctrls.dram.bytesRead               7601088                       # Total bytes read (Byte)
system.mem_ctrls.dram.bytesWritten            7599104                       # Total bytes written (Byte)
system.mem_ctrls.dram.avgRdBW             1676.525616                       # Average DRAM read bandwidth in MiBytes/s ((Byte/Second))
system.mem_ctrls.dram.avgWrBW             1676.088017                       # Average DRAM write bandwidth in MiBytes/s ((Byte/Second))
system.mem_ctrls.dram.peakBW                 19207.00                       # Theoretical peak bandwidth in MiByte/s ((Byte/Second))
system.mem_ctrls.dram.busUtil                   17.46                       # Data bus utilization in percentage (Ratio)
system.mem_ctrls.dram.busUtilRead                8.73                       # Data bus utilization in percentage for reads (Ratio)
system.mem_ctrls.dram.busUtilWrite               8.73                       # Data bus utilization in percentage for writes (Ratio)
system.mem_ctrls.dram.pageHitRate               70.00                       # Row buffer hit rate, read and write combined (Ratio)
system.mem_ctrls.dram.power_state.pwrStateResidencyTicks::UNDEFINED   4533833500                       # Cumulative time (in ticks) in various power states (Tick)
system.mem_ctrls.dram.rank0.actEnergy    109196863.776000                       # Energy for activate commands per rank (pJ) (Joule)
system.mem_ctrls.dram.rank0.preEnergy    145192415.793600                       # Energy for precharge commands per rank (pJ) (Joule)
system.mem_ctrls.dram.rank0.readEnergy   238742128.934400                       # Energy for read commands per rank (pJ) (Joule)
system.mem_ctrls.dram.rank0.writeEnergy  215249065.920000                       # Energy for write commands per rank (pJ) (Joule)
system.mem_ctrls.dram.rank0.refreshEnergy 806289779.030404                       # Energy for refresh commands per rank (pJ) (Joule)
system.mem_ctrls.dram.rank0.actBackEnergy 3796604806.377597                       # Energy for active background per rank (pJ) (Joule)
system.mem_ctrls.dram.rank0.preBackEnergy 42521064.768000                       # Energy for precharge background per rank (pJ) (Joule)
system.mem_ctrls.dram.rank0.actPowerDownEnergy            0                       # Energy for active power-down per rank (pJ) (Joule)
system.mem_ctrls.dram.rank0.prePowerDownEnergy            0                       # Energy for precharge power-down per rank (pJ) (Joule)
system.mem_ctrls.dram.rank0.selfRefreshEnergy            0                       # Energy for self refresh per rank (pJ) (Joule)
system.mem_ctrls.dram.rank0.totalEnergy  5353796124.600005                       # Total energy per rank (pJ) (Joule)
system.mem_ctrls.dram.rank0.averagePower  1180.854155                       # Core power per rank (mW) (Watt)
system.mem_ctrls.dram.rank0.totalIdleTime            0                       # Total Idle time Per DRAM Rank (Tick)
system.mem_ctrls.dram.rank0.pwrStateTime::IDLE     48100208                       # Time in different power states (Tick)
system.mem_ctrls.dram.rank0.pwrStateTime::REF    203700000                       # Time in different power states (Tick)
system.mem_ctrls.dram.rank0.pwrStateTime::SREF            0                       # Time in different power states (Tick)
system.mem_ctrls.dram.rank0.pwrStateTime::PRE_PDN            0                       # Time in different power states (Tick)
system.mem_ctrls.dram.rank0.pwrStateTime::ACT   4282033292                       # Time in different power states (Tick)
system.mem_ctrls.dram.rank0.pwrStateTime::ACT_PDN            0                       # Time in different power states (Tick)
system.mem_ctrls.dram.rank1.actEnergy    112992384.960000                       # Energy for activate commands per rank (pJ) (Joule)
system.mem_ctrls.dram.rank1.preEnergy    150209488.161600                       # Energy for precharge commands per rank (pJ) (Joule)
system.mem_ctrls.dram.rank1.readEnergy   260829498.451200                       # Energy for read commands per rank (pJ) (Joule)
system.mem_ctrls.dram.rank1.writeEnergy  231053541.600000                       # Energy for write commands per rank (pJ) (Joule)
system.mem_ctrls.dram.rank1.refreshEnergy 806289779.030404                       # Energy for refresh commands per rank (pJ) (Joule)
system.mem_ctrls.dram.rank1.actBackEnergy 3802642338.398395                       # Energy for active background per rank (pJ) (Joule)
system.mem_ctrls.dram.rank1.preBackEnergy 37882057.113600                       # Energy for precharge background per rank (pJ) (Joule)
system.mem_ctrls.dram.rank1.actPowerDownEnergy            0                       # Energy for active power-down per rank (pJ) (Joule)
system.mem_ctrls.dram.rank1.prePowerDownEnergy            0                       # Energy for precharge power-down per rank (pJ) (Joule)
system.mem_ctrls.dram.rank1.selfRefreshEnergy            0                       # Energy for self refresh per rank (pJ) (Joule)
system.mem_ctrls.dram.rank1.totalEnergy  5401899087.715201                       # Total energy per rank (pJ) (Joule)
system.mem_ctrls.dram.rank1.averagePower  1191.463932                       # Core power per rank (mW) (Watt)
system.mem_ctrls.dram.rank1.totalIdleTime            0                       # Total Idle time Per DRAM Rank (Tick)
system.mem_ctrls.dram.rank1.pwrStateTime::IDLE     41184506                       # Time in different power states (Tick)
system.mem_ctrls.dram.rank1.pwrStateTime::REF    203700000                       # Time in different power states (Tick)
system.mem_ctrls.dram.rank1.pwrStateTime::SREF            0                       # Time in different power states (Tick)
system.mem_ctrls.dram.rank1.pwrStateTime::PRE_PDN            0                       # Time in different power states (Tick)
system.mem_ctrls.dram.rank1.pwrStateTime::ACT   4288948994                       # Time in different power states (Tick)
system.mem_ctrls.dram.rank1.pwrStateTime::ACT_PDN            0                       # Time in different power states (Tick)
system.mem_ctrls.power_state.pwrStateResidencyTicks::UNDEFINED   4533833500                       # Cumulative time (in ticks) in various power states (Tick)
system.membus.transDist::ReadResp              111963                       # Transaction distribution (Count)
system.membus.transDist::WritebackDirty          9580                       # Transaction distribution (Count)
system.membus.transDist::WritebackClean        109157                       # Transaction distribution (Count)
system.membus.transDist::CleanEvict                 7                       # Transaction distribution (Count)
system.membus.transDist::ReadExReq               6810                       # Transaction distribution (Count)
system.membus.transDist::ReadExResp              6810                       # Transaction distribution (Count)
system.membus.transDist::ReadCleanReq          111962                       # Transaction distribution (Count)
system.membus.transDist::InvalidateReq              2                       # Transaction distribution (Count)
system.membus.pktCount_system.l2.mem_side_port::system.mem_ctrls.port       356291                       # Packet count per connected requestor and responder (Count)
system.membus.pktCount_system.l2.mem_side_port::total       356291                       # Packet count per connected requestor and responder (Count)
system.membus.pktCount::total                  356291                       # Packet count per connected requestor and responder (Count)
system.membus.pktSize_system.l2.mem_side_port::system.mem_ctrls.port     15200640                       # Cumulative packet size per connected requestor and responder (Byte)
system.membus.pktSize_system.l2.mem_side_port::total     15200640                       # Cumulative packet size per connected requestor and responder (Byte)
system.membus.pktSize::total                 15200640                       # Cumulative packet size per connected requestor and responder (Byte)
system.membus.snoops                                0                       # Total snoops (Count)
system.membus.snoopTraffic                          0                       # Total snoop traffic (Byte)
system.membus.snoopFanout::samples             118774                       # Request fanout histogram (Count)
system.membus.snoopFanout::mean                     0                       # Request fanout histogram (Count)
system.membus.snoopFanout::stdev                    0                       # Request fanout histogram (Count)
system.membus.snoopFanout::underflows               0      0.00%      0.00% # Request fanout histogram (Count)
system.membus.snoopFanout::0                   118774    100.00%    100.00% # Request fanout histogram (Count)
system.membus.snoopFanout::1                        0      0.00%    100.00% # Request fanout histogram (Count)
system.membus.snoopFanout::2                        0      0.00%    100.00% # Request fanout histogram (Count)
system.membus.snoopFanout::overflows                0      0.00%    100.00% # Request fanout histogram (Count)
system.membus.snoopFanout::min_value                0                       # Request fanout histogram (Count)
system.membus.snoopFanout::max_value                0                       # Request fanout histogram (Count)
system.membus.snoopFanout::total               118774                       # Request fanout histogram (Count)
system.membus.badaddr_responder.power_state.pwrStateResidencyTicks::UNDEFINED   4533833500                       # Cumulative time (in ticks) in various power states (Tick)
system.membus.power_state.pwrStateResidencyTicks::UNDEFINED   4533833500                       # Cumulative time (in ticks) in various power states (Tick)
system.membus.reqLayer1.occupancy           730019280                       # Layer occupancy (ticks) (Tick)
system.membus.reqLayer1.utilization               0.2                       # Layer utilization (Ratio)
system.membus.respLayer2.occupancy          627737186                       # Layer occupancy (ticks) (Tick)
system.membus.respLayer2.utilization              0.1                       # Layer utilization (Ratio)
system.membus.snoop_filter.totRequests         237519                       # Total number of requests made to the snoop filter. (Count)
system.membus.snoop_filter.hitSingleRequests       118759                       # Number of requests hitting in the snoop filter with a single holder of the requested data. (Count)
system.membus.snoop_filter.hitMultiRequests            0                       # Number of requests hitting in the snoop filter with multiple (>1) holders of the requested data. (Count)
system.membus.snoop_filter.totSnoops                0                       # Total number of snoops made to the snoop filter. (Count)
system.membus.snoop_filter.hitSingleSnoops            0                       # Number of snoops hitting in the snoop filter with a single holder of the requested data. (Count)
system.membus.snoop_filter.hitMultiSnoops            0                       # Number of snoops hitting in the snoop filter with multiple (>1) holders of the requested data. (Count)
system.mmcs.power_state.pwrStateResidencyTicks::UNDEFINED   4533833500                       # Cumulative time (in ticks) in various power states (Tick)
system.tol2bus.transDist::ReadResp             125244                       # Transaction distribution (Count)
system.tol2bus.transDist::WritebackDirty        28528                       # Transaction distribution (Count)
system.tol2bus.transDist::WritebackClean       223564                       # Transaction distribution (Count)
system.tol2bus.transDist::CleanEvict               21                       # Transaction distribution (Count)
system.tol2bus.transDist::ReadExReq              7506                       # Transaction distribution (Count)
system.tol2bus.transDist::ReadExResp             7506                       # Transaction distribution (Count)
system.tol2bus.transDist::ReadCleanReq              8                       # Transaction distribution (Count)
system.tol2bus.transDist::ReadSharedReq        125235                       # Transaction distribution (Count)
system.tol2bus.transDist::InvalidateReq           634                       # Transaction distribution (Count)
system.tol2bus.transDist::InvalidateResp          634                       # Transaction distribution (Count)
system.tol2bus.pktCount_system.cpu.icache.mem_side_port::system.l2.cpu_side_port           16                       # Packet count per connected requestor and responder (Count)
system.tol2bus.pktCount_system.cpu.dcache.mem_side_port::system.l2.cpu_side_port       400064                       # Packet count per connected requestor and responder (Count)
system.tol2bus.pktCount_system.cpu.dtb_walker_cache.mem_side_port::system.l2.cpu_side_port           63                       # Packet count per connected requestor and responder (Count)
system.tol2bus.pktCount::total                 400143                       # Packet count per connected requestor and responder (Count)
system.tol2bus.pktSize_system.cpu.icache.mem_side_port::system.l2.cpu_side_port          512                       # Cumulative packet size per connected requestor and responder (Byte)
system.tol2bus.pktSize_system.cpu.dcache.mem_side_port::system.l2.cpu_side_port     17028864                       # Cumulative packet size per connected requestor and responder (Byte)
system.tol2bus.pktSize_system.cpu.dtb_walker_cache.mem_side_port::system.l2.cpu_side_port         1344                       # Cumulative packet size per connected requestor and responder (Byte)
system.tol2bus.pktSize::total                17030720                       # Cumulative packet size per connected requestor and responder (Byte)
system.tol2bus.snoops                          118737                       # Total snoops (Count)
system.tol2bus.snoopTraffic                   7599168                       # Total snoop traffic (Byte)
system.tol2bus.snoopFanout::samples            252292                       # Request fanout histogram (Count)
system.tol2bus.snoopFanout::mean             0.000055                       # Request fanout histogram (Count)
system.tol2bus.snoopFanout::stdev            0.007449                       # Request fanout histogram (Count)
system.tol2bus.snoopFanout::underflows              0      0.00%      0.00% # Request fanout histogram (Count)
system.tol2bus.snoopFanout::0                  252278     99.99%     99.99% # Request fanout histogram (Count)
system.tol2bus.snoopFanout::1                      14      0.01%    100.00% # Request fanout histogram (Count)
system.tol2bus.snoopFanout::2                       0      0.00%    100.00% # Request fanout histogram (Count)
system.tol2bus.snoopFanout::3                       0      0.00%    100.00% # Request fanout histogram (Count)
system.tol2bus.snoopFanout::4                       0      0.00%    100.00% # Request fanout histogram (Count)
system.tol2bus.snoopFanout::overflows               0      0.00%    100.00% # Request fanout histogram (Count)
system.tol2bus.snoopFanout::min_value               0                       # Request fanout histogram (Count)
system.tol2bus.snoopFanout::max_value               1                       # Request fanout histogram (Count)
system.tol2bus.snoopFanout::total              252292                       # Request fanout histogram (Count)
system.tol2bus.power_state.pwrStateResidencyTicks::UNDEFINED   4533833500                       # Cumulative time (in ticks) in various power states (Tick)
system.tol2bus.reqLayer0.occupancy          200932417                       # Layer occupancy (ticks) (Tick)
system.tol2bus.reqLayer0.utilization              0.0                       # Layer utilization (Ratio)
system.tol2bus.respLayer0.occupancy              8000                       # Layer occupancy (ticks) (Tick)
system.tol2bus.respLayer0.utilization             0.0                       # Layer utilization (Ratio)
system.tol2bus.respLayer1.occupancy         133038000                       # Layer occupancy (ticks) (Tick)
system.tol2bus.respLayer1.utilization             0.0                       # Layer utilization (Ratio)
system.tol2bus.respLayer3.occupancy             21000                       # Layer occupancy (ticks) (Tick)
system.tol2bus.respLayer3.utilization             0.0                       # Layer utilization (Ratio)
system.tol2bus.snoop_filter.totRequests        267649                       # Total number of requests made to the snoop filter. (Count)
system.tol2bus.snoop_filter.hitSingleRequests       134094                       # Number of requests hitting in the snoop filter with a single holder of the requested data. (Count)
system.tol2bus.snoop_filter.hitMultiRequests           14                       # Number of requests hitting in the snoop filter with multiple (>1) holders of the requested data. (Count)
system.tol2bus.snoop_filter.totSnoops               0                       # Total number of snoops made to the snoop filter. (Count)
system.tol2bus.snoop_filter.hitSingleSnoops            0                       # Number of snoops hitting in the snoop filter with a single holder of the requested data. (Count)
system.tol2bus.snoop_filter.hitMultiSnoops            0                       # Number of snoops hitting in the snoop filter with multiple (>1) holders of the requested data. (Count)
system.uartlite.power_state.pwrStateResidencyTicks::UNDEFINED   4533833500                       # Cumulative time (in ticks) in various power states (Tick)
system.voltage_domain.voltage                       1                       # Voltage in Volts (Volt)
system.workload.inst.arm                            0                       # number of arm instructions executed (Count)
system.workload.inst.quiesce                        0                       # number of quiesce instructions executed (Count)

---------- End Simulation Statistics   ----------
