
---------- Begin Simulation Statistics ----------
simSeconds                                   0.019678                       # Number of seconds simulated (Second)
simTicks                                  19678265500                       # Number of ticks simulated (Tick)
finalTick                                 19678265500                       # Number of ticks from beginning of simulation (restored from checkpoints and never reset) (Tick)
simFreq                                  1000000000000                       # The number of ticks per simulated second ((Tick/Second))
hostSeconds                                    196.01                       # Real time elapsed on the host (Second)
hostTickRate                                100396013                       # The number of ticks simulated per host second (ticks/s) ((Tick/Second))
hostMemory                                   17068668                       # Number of bytes of host memory used (Byte)
simInsts                                     50000005                       # Number of instructions simulated (Count)
simOps                                       50000005                       # Number of ops (including micro ops) simulated (Count)
hostInstRate                                   255093                       # Simulator instruction rate (inst/s) ((Count/Second))
hostOpRate                                     255093                       # Simulator op (including micro ops) rate (op/s) ((Count/Second))
system.bridge.power_state.pwrStateResidencyTicks::UNDEFINED  19678265500                       # Cumulative time (in ticks) in various power states (Tick)
system.clk_domain.clock                          1000                       # Clock period in ticks (Tick)
system.cpu.numCycles                         39356532                       # Number of cpu cycles simulated (Cycle)
system.cpu.numWorkItemsStarted                      0                       # Number of work items this cpu started (Count)
system.cpu.numWorkItemsCompleted                    0                       # Number of work items this cpu completed (Count)
system.cpu.instsAdded                        50007836                       # Number of instructions added to the IQ (excludes non-spec) (Count)
system.cpu.nonSpecInstsAdded                       33                       # Number of non-speculative instructions added to the IQ (Count)
system.cpu.instsIssued                       50033657                       # Number of instructions issued (Count)
system.cpu.squashedInstsIssued                    119                       # Number of squashed instructions issued (Count)
system.cpu.squashedInstsExamined                 7622                       # Number of squashed instructions iterated over during squash; mainly for profiling (Count)
system.cpu.squashedOperandsExamined              3775                       # Number of squashed operands that are examined and possibly removed from graph (Count)
system.cpu.numIssuedDist::samples            39354891                       # Number of insts issued each cycle (Count)
system.cpu.numIssuedDist::mean               1.271345                       # Number of insts issued each cycle (Count)
system.cpu.numIssuedDist::stdev              1.815168                       # Number of insts issued each cycle (Count)
system.cpu.numIssuedDist::underflows                0      0.00%      0.00% # Number of insts issued each cycle (Count)
system.cpu.numIssuedDist::0                  21169153     53.79%     53.79% # Number of insts issued each cycle (Count)
system.cpu.numIssuedDist::1                   5114073     12.99%     66.79% # Number of insts issued each cycle (Count)
system.cpu.numIssuedDist::2                   5190666     13.19%     79.97% # Number of insts issued each cycle (Count)
system.cpu.numIssuedDist::3                   2842579      7.22%     87.20% # Number of insts issued each cycle (Count)
system.cpu.numIssuedDist::4                   2033410      5.17%     92.36% # Number of insts issued each cycle (Count)
system.cpu.numIssuedDist::5                   1211244      3.08%     95.44% # Number of insts issued each cycle (Count)
system.cpu.numIssuedDist::6                   1071726      2.72%     98.17% # Number of insts issued each cycle (Count)
system.cpu.numIssuedDist::7                    386021      0.98%     99.15% # Number of insts issued each cycle (Count)
system.cpu.numIssuedDist::8                    336019      0.85%    100.00% # Number of insts issued each cycle (Count)
system.cpu.numIssuedDist::overflows                 0      0.00%    100.00% # Number of insts issued each cycle (Count)
system.cpu.numIssuedDist::min_value                 0                       # Number of insts issued each cycle (Count)
system.cpu.numIssuedDist::max_value                 8                       # Number of insts issued each cycle (Count)
system.cpu.numIssuedDist::total              39354891                       # Number of insts issued each cycle (Count)
system.cpu.statFuBusy::No_OpClass                   0      0.00%      0.00% # attempts to use FU when none available (Count)
system.cpu.statFuBusy::IntAlu                      27      0.00%      0.00% # attempts to use FU when none available (Count)
system.cpu.statFuBusy::IntMult                      0      0.00%      0.00% # attempts to use FU when none available (Count)
system.cpu.statFuBusy::IntDiv                       0      0.00%      0.00% # attempts to use FU when none available (Count)
system.cpu.statFuBusy::FloatAdd                 99138      0.59%      0.59% # attempts to use FU when none available (Count)
system.cpu.statFuBusy::FloatCmp                     4      0.00%      0.59% # attempts to use FU when none available (Count)
system.cpu.statFuBusy::FloatCvt                     0      0.00%      0.59% # attempts to use FU when none available (Count)
system.cpu.statFuBusy::FloatMult              6697732     39.79%     40.38% # attempts to use FU when none available (Count)
system.cpu.statFuBusy::FloatMultAcc           1231846      7.32%     47.70% # attempts to use FU when none available (Count)
system.cpu.statFuBusy::FloatDiv                983403      5.84%     53.54% # attempts to use FU when none available (Count)
system.cpu.statFuBusy::FloatMisc              7361949     43.74%     97.28% # attempts to use FU when none available (Count)
system.cpu.statFuBusy::FloatSqrt                    0      0.00%     97.28% # attempts to use FU when none available (Count)
system.cpu.statFuBusy::SimdAdd                      0      0.00%     97.28% # attempts to use FU when none available (Count)
system.cpu.statFuBusy::SimdAddAcc                   0      0.00%     97.28% # attempts to use FU when none available (Count)
system.cpu.statFuBusy::SimdAlu                      0      0.00%     97.28% # attempts to use FU when none available (Count)
system.cpu.statFuBusy::SimdCmp                      0      0.00%     97.28% # attempts to use FU when none available (Count)
system.cpu.statFuBusy::SimdCvt                      0      0.00%     97.28% # attempts to use FU when none available (Count)
system.cpu.statFuBusy::SimdMisc                     0      0.00%     97.28% # attempts to use FU when none available (Count)
system.cpu.statFuBusy::SimdMult                     0      0.00%     97.28% # attempts to use FU when none available (Count)
system.cpu.statFuBusy::SimdMultAcc                  0      0.00%     97.28% # attempts to use FU when none available (Count)
system.cpu.statFuBusy::SimdShift                    0      0.00%     97.28% # attempts to use FU when none available (Count)
system.cpu.statFuBusy::SimdShiftAcc                 0      0.00%     97.28% # attempts to use FU when none available (Count)
system.cpu.statFuBusy::SimdDiv                      0      0.00%     97.28% # attempts to use FU when none available (Count)
system.cpu.statFuBusy::SimdSqrt                     0      0.00%     97.28% # attempts to use FU when none available (Count)
system.cpu.statFuBusy::SimdFloatAdd                 0      0.00%     97.28% # attempts to use FU when none available (Count)
system.cpu.statFuBusy::SimdFloatAlu                 0      0.00%     97.28% # attempts to use FU when none available (Count)
system.cpu.statFuBusy::SimdFloatCmp                 0      0.00%     97.28% # attempts to use FU when none available (Count)
system.cpu.statFuBusy::SimdFloatCvt                 0      0.00%     97.28% # attempts to use FU when none available (Count)
system.cpu.statFuBusy::SimdFloatDiv                 0      0.00%     97.28% # attempts to use FU when none available (Count)
system.cpu.statFuBusy::SimdFloatMisc                0      0.00%     97.28% # attempts to use FU when none available (Count)
system.cpu.statFuBusy::SimdFloatMult                0      0.00%     97.28% # attempts to use FU when none available (Count)
system.cpu.statFuBusy::SimdFloatMultAcc             0      0.00%     97.28% # attempts to use FU when none available (Count)
system.cpu.statFuBusy::SimdFloatSqrt                0      0.00%     97.28% # attempts to use FU when none available (Count)
system.cpu.statFuBusy::SimdReduceAdd                0      0.00%     97.28% # attempts to use FU when none available (Count)
system.cpu.statFuBusy::SimdReduceAlu                0      0.00%     97.28% # attempts to use FU when none available (Count)
system.cpu.statFuBusy::SimdReduceCmp                0      0.00%     97.28% # attempts to use FU when none available (Count)
system.cpu.statFuBusy::SimdFloatReduceAdd            0      0.00%     97.28% # attempts to use FU when none available (Count)
system.cpu.statFuBusy::SimdFloatReduceCmp            0      0.00%     97.28% # attempts to use FU when none available (Count)
system.cpu.statFuBusy::SimdAes                      0      0.00%     97.28% # attempts to use FU when none available (Count)
system.cpu.statFuBusy::SimdAesMix                   0      0.00%     97.28% # attempts to use FU when none available (Count)
system.cpu.statFuBusy::SimdSha1Hash                 0      0.00%     97.28% # attempts to use FU when none available (Count)
system.cpu.statFuBusy::SimdSha1Hash2                0      0.00%     97.28% # attempts to use FU when none available (Count)
system.cpu.statFuBusy::SimdSha256Hash               0      0.00%     97.28% # attempts to use FU when none available (Count)
system.cpu.statFuBusy::SimdSha256Hash2              0      0.00%     97.28% # attempts to use FU when none available (Count)
system.cpu.statFuBusy::SimdShaSigma2                0      0.00%     97.28% # attempts to use FU when none available (Count)
system.cpu.statFuBusy::SimdShaSigma3                0      0.00%     97.28% # attempts to use FU when none available (Count)
system.cpu.statFuBusy::SimdPredAlu                  0      0.00%     97.28% # attempts to use FU when none available (Count)
system.cpu.statFuBusy::MemRead                   1412      0.01%     97.29% # attempts to use FU when none available (Count)
system.cpu.statFuBusy::MemWrite                     0      0.00%     97.29% # attempts to use FU when none available (Count)
system.cpu.statFuBusy::FloatMemRead            456733      2.71%    100.00% # attempts to use FU when none available (Count)
system.cpu.statFuBusy::FloatMemWrite                0      0.00%    100.00% # attempts to use FU when none available (Count)
system.cpu.statFuBusy::IprAccess                    0      0.00%    100.00% # attempts to use FU when none available (Count)
system.cpu.statFuBusy::InstPrefetch                 0      0.00%    100.00% # attempts to use FU when none available (Count)
system.cpu.statIssuedInstType_0::No_OpClass           32      0.00%      0.00% # Number of instructions issued per FU type, per thread (Count)
system.cpu.statIssuedInstType_0::IntAlu      11965804     23.92%     23.92% # Number of instructions issued per FU type, per thread (Count)
system.cpu.statIssuedInstType_0::IntMult            0      0.00%     23.92% # Number of instructions issued per FU type, per thread (Count)
system.cpu.statIssuedInstType_0::IntDiv             0      0.00%     23.92% # Number of instructions issued per FU type, per thread (Count)
system.cpu.statIssuedInstType_0::FloatAdd      5541091     11.07%     34.99% # Number of instructions issued per FU type, per thread (Count)
system.cpu.statIssuedInstType_0::FloatCmp      1595664      3.19%     38.18% # Number of instructions issued per FU type, per thread (Count)
system.cpu.statIssuedInstType_0::FloatCvt         3166      0.01%     38.19% # Number of instructions issued per FU type, per thread (Count)
system.cpu.statIssuedInstType_0::FloatMult      6734867     13.46%     51.65% # Number of instructions issued per FU type, per thread (Count)
system.cpu.statIssuedInstType_0::FloatMultAcc      3147468      6.29%     57.94% # Number of instructions issued per FU type, per thread (Count)
system.cpu.statIssuedInstType_0::FloatDiv      1184255      2.37%     60.30% # Number of instructions issued per FU type, per thread (Count)
system.cpu.statIssuedInstType_0::FloatMisc      3961156      7.92%     68.22% # Number of instructions issued per FU type, per thread (Count)
system.cpu.statIssuedInstType_0::FloatSqrt            0      0.00%     68.22% # Number of instructions issued per FU type, per thread (Count)
system.cpu.statIssuedInstType_0::SimdAdd            0      0.00%     68.22% # Number of instructions issued per FU type, per thread (Count)
system.cpu.statIssuedInstType_0::SimdAddAcc            0      0.00%     68.22% # Number of instructions issued per FU type, per thread (Count)
system.cpu.statIssuedInstType_0::SimdAlu            0      0.00%     68.22% # Number of instructions issued per FU type, per thread (Count)
system.cpu.statIssuedInstType_0::SimdCmp            0      0.00%     68.22% # Number of instructions issued per FU type, per thread (Count)
system.cpu.statIssuedInstType_0::SimdCvt            0      0.00%     68.22% # Number of instructions issued per FU type, per thread (Count)
system.cpu.statIssuedInstType_0::SimdMisc            0      0.00%     68.22% # Number of instructions issued per FU type, per thread (Count)
system.cpu.statIssuedInstType_0::SimdMult            0      0.00%     68.22% # Number of instructions issued per FU type, per thread (Count)
system.cpu.statIssuedInstType_0::SimdMultAcc            0      0.00%     68.22% # Number of instructions issued per FU type, per thread (Count)
system.cpu.statIssuedInstType_0::SimdShift            0      0.00%     68.22% # Number of instructions issued per FU type, per thread (Count)
system.cpu.statIssuedInstType_0::SimdShiftAcc            0      0.00%     68.22% # Number of instructions issued per FU type, per thread (Count)
system.cpu.statIssuedInstType_0::SimdDiv            0      0.00%     68.22% # Number of instructions issued per FU type, per thread (Count)
system.cpu.statIssuedInstType_0::SimdSqrt            0      0.00%     68.22% # Number of instructions issued per FU type, per thread (Count)
system.cpu.statIssuedInstType_0::SimdFloatAdd            0      0.00%     68.22% # Number of instructions issued per FU type, per thread (Count)
system.cpu.statIssuedInstType_0::SimdFloatAlu            0      0.00%     68.22% # Number of instructions issued per FU type, per thread (Count)
system.cpu.statIssuedInstType_0::SimdFloatCmp            0      0.00%     68.22% # Number of instructions issued per FU type, per thread (Count)
system.cpu.statIssuedInstType_0::SimdFloatCvt            0      0.00%     68.22% # Number of instructions issued per FU type, per thread (Count)
system.cpu.statIssuedInstType_0::SimdFloatDiv            0      0.00%     68.22% # Number of instructions issued per FU type, per thread (Count)
system.cpu.statIssuedInstType_0::SimdFloatMisc            0      0.00%     68.22% # Number of instructions issued per FU type, per thread (Count)
system.cpu.statIssuedInstType_0::SimdFloatMult            0      0.00%     68.22% # Number of instructions issued per FU type, per thread (Count)
system.cpu.statIssuedInstType_0::SimdFloatMultAcc            0      0.00%     68.22% # Number of instructions issued per FU type, per thread (Count)
system.cpu.statIssuedInstType_0::SimdFloatSqrt            0      0.00%     68.22% # Number of instructions issued per FU type, per thread (Count)
system.cpu.statIssuedInstType_0::SimdReduceAdd            0      0.00%     68.22% # Number of instructions issued per FU type, per thread (Count)
system.cpu.statIssuedInstType_0::SimdReduceAlu            0      0.00%     68.22% # Number of instructions issued per FU type, per thread (Count)
system.cpu.statIssuedInstType_0::SimdReduceCmp            0      0.00%     68.22% # Number of instructions issued per FU type, per thread (Count)
system.cpu.statIssuedInstType_0::SimdFloatReduceAdd            0      0.00%     68.22% # Number of instructions issued per FU type, per thread (Count)
system.cpu.statIssuedInstType_0::SimdFloatReduceCmp            0      0.00%     68.22% # Number of instructions issued per FU type, per thread (Count)
system.cpu.statIssuedInstType_0::SimdAes            0      0.00%     68.22% # Number of instructions issued per FU type, per thread (Count)
system.cpu.statIssuedInstType_0::SimdAesMix            0      0.00%     68.22% # Number of instructions issued per FU type, per thread (Count)
system.cpu.statIssuedInstType_0::SimdSha1Hash            0      0.00%     68.22% # Number of instructions issued per FU type, per thread (Count)
system.cpu.statIssuedInstType_0::SimdSha1Hash2            0      0.00%     68.22% # Number of instructions issued per FU type, per thread (Count)
system.cpu.statIssuedInstType_0::SimdSha256Hash            0      0.00%     68.22% # Number of instructions issued per FU type, per thread (Count)
system.cpu.statIssuedInstType_0::SimdSha256Hash2            0      0.00%     68.22% # Number of instructions issued per FU type, per thread (Count)
system.cpu.statIssuedInstType_0::SimdShaSigma2            0      0.00%     68.22% # Number of instructions issued per FU type, per thread (Count)
system.cpu.statIssuedInstType_0::SimdShaSigma3            0      0.00%     68.22% # Number of instructions issued per FU type, per thread (Count)
system.cpu.statIssuedInstType_0::SimdPredAlu            0      0.00%     68.22% # Number of instructions issued per FU type, per thread (Count)
system.cpu.statIssuedInstType_0::MemRead        98956      0.20%     68.42% # Number of instructions issued per FU type, per thread (Count)
system.cpu.statIssuedInstType_0::MemWrite         6523      0.01%     68.43% # Number of instructions issued per FU type, per thread (Count)
system.cpu.statIssuedInstType_0::FloatMemRead     11457337     22.90%     91.33% # Number of instructions issued per FU type, per thread (Count)
system.cpu.statIssuedInstType_0::FloatMemWrite      4337338      8.67%    100.00% # Number of instructions issued per FU type, per thread (Count)
system.cpu.statIssuedInstType_0::IprAccess            0      0.00%    100.00% # Number of instructions issued per FU type, per thread (Count)
system.cpu.statIssuedInstType_0::InstPrefetch            0      0.00%    100.00% # Number of instructions issued per FU type, per thread (Count)
system.cpu.statIssuedInstType_0::total       50033657                       # Number of instructions issued per FU type, per thread (Count)
system.cpu.issueRate                         1.271292                       # Inst issue rate ((Count/Cycle))
system.cpu.fuBusy                            16832244                       # FU busy when requested (Count)
system.cpu.fuBusyRate                        0.336418                       # FU busy rate (busy events/executed inst) ((Count/Count))
system.cpu.intInstQueueReads                 63498992                       # Number of integer instruction queue reads (Count)
system.cpu.intInstQueueWrites                12074708                       # Number of integer instruction queue writes (Count)
system.cpu.intInstQueueWakeupAccesses        12070727                       # Number of integer instruction queue wakeup accesses (Count)
system.cpu.fpInstQueueReads                  92755574                       # Number of floating instruction queue reads (Count)
system.cpu.fpInstQueueWrites                 37940866                       # Number of floating instruction queue writes (Count)
system.cpu.fpInstQueueWakeupAccesses         37934614                       # Number of floating instruction queue wakeup accesses (Count)
system.cpu.vecInstQueueReads                        0                       # Number of vector instruction queue reads (Count)
system.cpu.vecInstQueueWrites                       0                       # Number of vector instruction queue writes (Count)
system.cpu.vecInstQueueWakeupAccesses               0                       # Number of vector instruction queue wakeup accesses (Count)
system.cpu.intAluAccesses                    12072722                       # Number of integer alu accesses (Count)
system.cpu.fpAluAccesses                     54793147                       # Number of floating point alu accesses (Count)
system.cpu.vecAluAccesses                           0                       # Number of vector alu accesses (Count)
system.cpu.numInsts                          50005713                       # Number of executed instructions (Count)
system.cpu.numLoadInsts                      11543364                       # Number of load instructions executed (Count)
system.cpu.numSquashedInsts                       402                       # Number of squashed instructions skipped in execute (Count)
system.cpu.numSwp                                   0                       # Number of swp insts executed (Count)
system.cpu.numNop                                   0                       # Number of nop insts executed (Count)
system.cpu.numRefs                           15872413                       # Number of memory reference insts executed (Count)
system.cpu.numBranches                        1611893                       # Number of branches executed (Count)
system.cpu.numStoreInsts                      4329049                       # Number of stores executed (Count)
system.cpu.numRate                           1.270582                       # Inst execution rate ((Count/Cycle))
system.cpu.timesIdled                              19                       # Number of times that the entire CPU went into an idle state and unscheduled itself (Count)
system.cpu.idleCycles                            1641                       # Total number of cycles that the CPU has spent unscheduled due to idling (Cycle)
system.cpu.committedInsts                    50000005                       # Number of Instructions Simulated (Count)
system.cpu.committedOps                      50000005                       # Number of Ops (including micro ops) Simulated (Count)
system.cpu.cpi                               0.787131                       # CPI: Cycles Per Instruction ((Cycle/Count))
system.cpu.totalCpi                          0.787131                       # CPI: Total CPI of All Threads ((Cycle/Count))
system.cpu.ipc                               1.270437                       # IPC: Instructions Per Cycle ((Count/Cycle))
system.cpu.totalIpc                          1.270437                       # IPC: Total IPC of All Threads ((Count/Cycle))
system.cpu.intRegfileReads                   33399155                       # Number of integer regfile reads (Count)
system.cpu.intRegfileWrites                  10452337                       # Number of integer regfile writes (Count)
system.cpu.fpRegfileReads                    51813770                       # Number of floating regfile reads (Count)
system.cpu.fpRegfileWrites                   33612111                       # Number of floating regfile writes (Count)
system.cpu.miscRegfileReads                 542554184                       # number of misc regfile reads (Count)
system.cpu.miscRegfileWrites                 33609519                       # number of misc regfile writes (Count)
system.cpu.lastCommitTick                 19678265500                       # The last tick to commit an instruction (Count)
system.cpu.MemDepUnit__0.insertedLoads       11543758                       # Number of loads inserted to the mem dependence unit. (Count)
system.cpu.MemDepUnit__0.insertedStores       4329660                       # Number of stores inserted to the mem dependence unit. (Count)
system.cpu.MemDepUnit__0.conflictingLoads      1559583                       # Number of conflicting loads. (Count)
system.cpu.MemDepUnit__0.conflictingStores      1165640                       # Number of conflicting stores. (Count)
system.cpu.MemDepUnit__1.insertedLoads              0                       # Number of loads inserted to the mem dependence unit. (Count)
system.cpu.MemDepUnit__1.insertedStores             0                       # Number of stores inserted to the mem dependence unit. (Count)
system.cpu.MemDepUnit__1.conflictingLoads            0                       # Number of conflicting loads. (Count)
system.cpu.MemDepUnit__1.conflictingStores            0                       # Number of conflicting stores. (Count)
system.cpu.MemDepUnit__2.insertedLoads              0                       # Number of loads inserted to the mem dependence unit. (Count)
system.cpu.MemDepUnit__2.insertedStores             0                       # Number of stores inserted to the mem dependence unit. (Count)
system.cpu.MemDepUnit__2.conflictingLoads            0                       # Number of conflicting loads. (Count)
system.cpu.MemDepUnit__2.conflictingStores            0                       # Number of conflicting stores. (Count)
system.cpu.MemDepUnit__3.insertedLoads              0                       # Number of loads inserted to the mem dependence unit. (Count)
system.cpu.MemDepUnit__3.insertedStores             0                       # Number of stores inserted to the mem dependence unit. (Count)
system.cpu.MemDepUnit__3.conflictingLoads            0                       # Number of conflicting loads. (Count)
system.cpu.MemDepUnit__3.conflictingStores            0                       # Number of conflicting stores. (Count)
system.cpu.branchPred.lookups                 1612618                       # Number of BP lookups (Count)
system.cpu.branchPred.condPredicted           1612602                       # Number of conditional branches predicted (Count)
system.cpu.branchPred.condIncorrect               187                       # Number of conditional branches incorrect (Count)
system.cpu.branchPred.BTBLookups              1580696                       # Number of BTB lookups (Count)
system.cpu.branchPred.BTBHits                 1580690                       # Number of BTB hits (Count)
system.cpu.branchPred.BTBHitRatio            0.999996                       # BTB Hit Ratio (Ratio)
system.cpu.branchPred.RASUsed                       9                       # Number of times the RAS was used to get a target. (Count)
system.cpu.branchPred.RASIncorrect                  1                       # Number of incorrect RAS predictions. (Count)
system.cpu.branchPred.indirectLookups               0                       # Number of indirect predictor lookups. (Count)
system.cpu.branchPred.indirectHits                  0                       # Number of indirect target hits. (Count)
system.cpu.branchPred.indirectMisses                0                       # Number of indirect misses. (Count)
system.cpu.branchPred.indirectMispredicted            0                       # Number of mispredicted indirect branches. (Count)
system.cpu.branchPred.tage.longestMatchProviderCorrect      1525469                       # Number of times TAGE Longest Match is the provider and the prediction is correct (Count)
system.cpu.branchPred.tage.altMatchProviderCorrect          124                       # Number of times TAGE Alt Match is the provider and the prediction is correct (Count)
system.cpu.branchPred.tage.bimodalAltMatchProviderCorrect           63                       # Number of times TAGE Alt Match is the bimodal and it is the provider and the prediction is correct (Count)
system.cpu.branchPred.tage.bimodalProviderCorrect        85748                       # Number of times there are no hits on the TAGE tables and the bimodal prediction is correct (Count)
system.cpu.branchPred.tage.longestMatchProviderWrong          127                       # Number of times TAGE Longest Match is the provider and the prediction is wrong (Count)
system.cpu.branchPred.tage.altMatchProviderWrong           13                       # Number of times TAGE Alt Match is the provider and the prediction is wrong (Count)
system.cpu.branchPred.tage.bimodalAltMatchProviderWrong            1                       # Number of times TAGE Alt Match is the bimodal and it is the provider and the prediction is wrong (Count)
system.cpu.branchPred.tage.bimodalProviderWrong           29                       # Number of times there are no hits on the TAGE tables and the bimodal prediction is wrong (Count)
system.cpu.branchPred.tage.altMatchProviderWouldHaveHit           38                       # Number of times TAGE Longest Match is the provider, the prediction is wrong and Alt Match prediction was correct (Count)
system.cpu.branchPred.tage.longestMatchProviderWouldHaveHit           13                       # Number of times TAGE Alt Match is the provider, the prediction is wrong and Longest Match prediction was correct (Count)
system.cpu.branchPred.tage.longestMatchProvider::0            0                       # TAGE provider for longest match (Count)
system.cpu.branchPred.tage.longestMatchProvider::1        63277                       # TAGE provider for longest match (Count)
system.cpu.branchPred.tage.longestMatchProvider::2       145770                       # TAGE provider for longest match (Count)
system.cpu.branchPred.tage.longestMatchProvider::3       593373                       # TAGE provider for longest match (Count)
system.cpu.branchPred.tage.longestMatchProvider::4          144                       # TAGE provider for longest match (Count)
system.cpu.branchPred.tage.longestMatchProvider::5       101297                       # TAGE provider for longest match (Count)
system.cpu.branchPred.tage.longestMatchProvider::6       603272                       # TAGE provider for longest match (Count)
system.cpu.branchPred.tage.longestMatchProvider::7        18600                       # TAGE provider for longest match (Count)
system.cpu.branchPred.tage.altMatchProvider::0       302392                       # TAGE provider for alt match (Count)
system.cpu.branchPred.tage.altMatchProvider::1       306974                       # TAGE provider for alt match (Count)
system.cpu.branchPred.tage.altMatchProvider::2       294495                       # TAGE provider for alt match (Count)
system.cpu.branchPred.tage.altMatchProvider::3       451447                       # TAGE provider for alt match (Count)
system.cpu.branchPred.tage.altMatchProvider::4         2814                       # TAGE provider for alt match (Count)
system.cpu.branchPred.tage.altMatchProvider::5       151825                       # TAGE provider for alt match (Count)
system.cpu.branchPred.tage.altMatchProvider::6        15786                       # TAGE provider for alt match (Count)
system.cpu.branchPred.tage.altMatchProvider::7            0                       # TAGE provider for alt match (Count)
system.cpu.commit.commitSquashedInsts            7622                       # The number of squashed insts skipped by commit (Count)
system.cpu.commit.commitNonSpecStalls              33                       # The number of times commit has been forced to stall to communicate backwards (Count)
system.cpu.commit.branchMispredicts               184                       # The number of times a branch was mispredicted (Count)
system.cpu.commit.numCommittedDist::samples     39353414                       # Number of insts commited each cycle (Count)
system.cpu.commit.numCommittedDist::mean     1.270538                       # Number of insts commited each cycle (Count)
system.cpu.commit.numCommittedDist::stdev     2.285877                       # Number of insts commited each cycle (Count)
system.cpu.commit.numCommittedDist::underflows            0      0.00%      0.00% # Number of insts commited each cycle (Count)
system.cpu.commit.numCommittedDist::0        27989177     71.12%     71.12% # Number of insts commited each cycle (Count)
system.cpu.commit.numCommittedDist::1         1901813      4.83%     75.96% # Number of insts commited each cycle (Count)
system.cpu.commit.numCommittedDist::2         1638845      4.16%     80.12% # Number of insts commited each cycle (Count)
system.cpu.commit.numCommittedDist::3          341829      0.87%     80.99% # Number of insts commited each cycle (Count)
system.cpu.commit.numCommittedDist::4          165663      0.42%     81.41% # Number of insts commited each cycle (Count)
system.cpu.commit.numCommittedDist::5          764159      1.94%     83.35% # Number of insts commited each cycle (Count)
system.cpu.commit.numCommittedDist::6         6551928     16.65%    100.00% # Number of insts commited each cycle (Count)
system.cpu.commit.numCommittedDist::overflows            0      0.00%    100.00% # Number of insts commited each cycle (Count)
system.cpu.commit.numCommittedDist::min_value            0                       # Number of insts commited each cycle (Count)
system.cpu.commit.numCommittedDist::max_value            6                       # Number of insts commited each cycle (Count)
system.cpu.commit.numCommittedDist::total     39353414                       # Number of insts commited each cycle (Count)
system.cpu.commit.instsCommitted             50000005                       # Number of instructions committed (Count)
system.cpu.commit.opsCommitted               50000005                       # Number of ops (including micro ops) committed (Count)
system.cpu.commit.memRefs                    15870001                       # Number of memory references committed (Count)
system.cpu.commit.loads                      11541323                       # Number of loads committed (Count)
system.cpu.commit.amos                              0                       # Number of atomic instructions committed (Count)
system.cpu.commit.membars                           0                       # Number of memory barriers committed (Count)
system.cpu.commit.branches                    1611574                       # Number of branches committed (Count)
system.cpu.commit.vectorInstructions                0                       # Number of committed Vector instructions. (Count)
system.cpu.commit.floating                   37931687                       # Number of committed floating point instructions. (Count)
system.cpu.commit.integer                    27836643                       # Number of committed integer instructions. (Count)
system.cpu.commit.functionCalls                     0                       # Number of function calls committed. (Count)
system.cpu.commit.committedInstType_0::No_OpClass           32      0.00%      0.00% # Class of committed instruction (Count)
system.cpu.commit.committedInstType_0::IntAlu     11963445     23.93%     23.93% # Class of committed instruction (Count)
system.cpu.commit.committedInstType_0::IntMult            0      0.00%     23.93% # Class of committed instruction (Count)
system.cpu.commit.committedInstType_0::IntDiv            0      0.00%     23.93% # Class of committed instruction (Count)
system.cpu.commit.committedInstType_0::FloatAdd      5540802     11.08%     35.01% # Class of committed instruction (Count)
system.cpu.commit.committedInstType_0::FloatCmp      1595664      3.19%     38.20% # Class of committed instruction (Count)
system.cpu.commit.committedInstType_0::FloatCvt         3166      0.01%     38.21% # Class of committed instruction (Count)
system.cpu.commit.committedInstType_0::FloatMult      6734384     13.47%     51.67% # Class of committed instruction (Count)
system.cpu.commit.committedInstType_0::FloatMultAcc      3147306      6.29%     57.97% # Class of committed instruction (Count)
system.cpu.commit.committedInstType_0::FloatDiv      1184235      2.37%     60.34% # Class of committed instruction (Count)
system.cpu.commit.committedInstType_0::FloatMisc      3960970      7.92%     68.26% # Class of committed instruction (Count)
system.cpu.commit.committedInstType_0::FloatSqrt            0      0.00%     68.26% # Class of committed instruction (Count)
system.cpu.commit.committedInstType_0::SimdAdd            0      0.00%     68.26% # Class of committed instruction (Count)
system.cpu.commit.committedInstType_0::SimdAddAcc            0      0.00%     68.26% # Class of committed instruction (Count)
system.cpu.commit.committedInstType_0::SimdAlu            0      0.00%     68.26% # Class of committed instruction (Count)
system.cpu.commit.committedInstType_0::SimdCmp            0      0.00%     68.26% # Class of committed instruction (Count)
system.cpu.commit.committedInstType_0::SimdCvt            0      0.00%     68.26% # Class of committed instruction (Count)
system.cpu.commit.committedInstType_0::SimdMisc            0      0.00%     68.26% # Class of committed instruction (Count)
system.cpu.commit.committedInstType_0::SimdMult            0      0.00%     68.26% # Class of committed instruction (Count)
system.cpu.commit.committedInstType_0::SimdMultAcc            0      0.00%     68.26% # Class of committed instruction (Count)
system.cpu.commit.committedInstType_0::SimdShift            0      0.00%     68.26% # Class of committed instruction (Count)
system.cpu.commit.committedInstType_0::SimdShiftAcc            0      0.00%     68.26% # Class of committed instruction (Count)
system.cpu.commit.committedInstType_0::SimdDiv            0      0.00%     68.26% # Class of committed instruction (Count)
system.cpu.commit.committedInstType_0::SimdSqrt            0      0.00%     68.26% # Class of committed instruction (Count)
system.cpu.commit.committedInstType_0::SimdFloatAdd            0      0.00%     68.26% # Class of committed instruction (Count)
system.cpu.commit.committedInstType_0::SimdFloatAlu            0      0.00%     68.26% # Class of committed instruction (Count)
system.cpu.commit.committedInstType_0::SimdFloatCmp            0      0.00%     68.26% # Class of committed instruction (Count)
system.cpu.commit.committedInstType_0::SimdFloatCvt            0      0.00%     68.26% # Class of committed instruction (Count)
system.cpu.commit.committedInstType_0::SimdFloatDiv            0      0.00%     68.26% # Class of committed instruction (Count)
system.cpu.commit.committedInstType_0::SimdFloatMisc            0      0.00%     68.26% # Class of committed instruction (Count)
system.cpu.commit.committedInstType_0::SimdFloatMult            0      0.00%     68.26% # Class of committed instruction (Count)
system.cpu.commit.committedInstType_0::SimdFloatMultAcc            0      0.00%     68.26% # Class of committed instruction (Count)
system.cpu.commit.committedInstType_0::SimdFloatSqrt            0      0.00%     68.26% # Class of committed instruction (Count)
system.cpu.commit.committedInstType_0::SimdReduceAdd            0      0.00%     68.26% # Class of committed instruction (Count)
system.cpu.commit.committedInstType_0::SimdReduceAlu            0      0.00%     68.26% # Class of committed instruction (Count)
system.cpu.commit.committedInstType_0::SimdReduceCmp            0      0.00%     68.26% # Class of committed instruction (Count)
system.cpu.commit.committedInstType_0::SimdFloatReduceAdd            0      0.00%     68.26% # Class of committed instruction (Count)
system.cpu.commit.committedInstType_0::SimdFloatReduceCmp            0      0.00%     68.26% # Class of committed instruction (Count)
system.cpu.commit.committedInstType_0::SimdAes            0      0.00%     68.26% # Class of committed instruction (Count)
system.cpu.commit.committedInstType_0::SimdAesMix            0      0.00%     68.26% # Class of committed instruction (Count)
system.cpu.commit.committedInstType_0::SimdSha1Hash            0      0.00%     68.26% # Class of committed instruction (Count)
system.cpu.commit.committedInstType_0::SimdSha1Hash2            0      0.00%     68.26% # Class of committed instruction (Count)
system.cpu.commit.committedInstType_0::SimdSha256Hash            0      0.00%     68.26% # Class of committed instruction (Count)
system.cpu.commit.committedInstType_0::SimdSha256Hash2            0      0.00%     68.26% # Class of committed instruction (Count)
system.cpu.commit.committedInstType_0::SimdShaSigma2            0      0.00%     68.26% # Class of committed instruction (Count)
system.cpu.commit.committedInstType_0::SimdShaSigma3            0      0.00%     68.26% # Class of committed instruction (Count)
system.cpu.commit.committedInstType_0::SimdPredAlu            0      0.00%     68.26% # Class of committed instruction (Count)
system.cpu.commit.committedInstType_0::MemRead        98357      0.20%     68.46% # Class of committed instruction (Count)
system.cpu.commit.committedInstType_0::MemWrite         6484      0.01%     68.47% # Class of committed instruction (Count)
system.cpu.commit.committedInstType_0::FloatMemRead     11442966     22.89%     91.36% # Class of committed instruction (Count)
system.cpu.commit.committedInstType_0::FloatMemWrite      4322194      8.64%    100.00% # Class of committed instruction (Count)
system.cpu.commit.committedInstType_0::IprAccess            0      0.00%    100.00% # Class of committed instruction (Count)
system.cpu.commit.committedInstType_0::InstPrefetch            0      0.00%    100.00% # Class of committed instruction (Count)
system.cpu.commit.committedInstType_0::total     50000005                       # Class of committed instruction (Count)
system.cpu.commit.commitEligibleSamples       6551928                       # number cycles where commit BW limit reached (Cycle)
system.cpu.dcache.demandHits::cpu.data       13996514                       # number of demand (read+write) hits (Count)
system.cpu.dcache.demandHits::total          13996514                       # number of demand (read+write) hits (Count)
system.cpu.dcache.overallHits::cpu.data      13996514                       # number of overall hits (Count)
system.cpu.dcache.overallHits::total         13996514                       # number of overall hits (Count)
system.cpu.dcache.demandMisses::cpu.data      1875450                       # number of demand (read+write) misses (Count)
system.cpu.dcache.demandMisses::total         1875450                       # number of demand (read+write) misses (Count)
system.cpu.dcache.overallMisses::cpu.data      1875450                       # number of overall misses (Count)
system.cpu.dcache.overallMisses::total        1875450                       # number of overall misses (Count)
system.cpu.dcache.demandMissLatency::cpu.data 105617194000                       # number of demand (read+write) miss ticks (Tick)
system.cpu.dcache.demandMissLatency::total 105617194000                       # number of demand (read+write) miss ticks (Tick)
system.cpu.dcache.overallMissLatency::cpu.data 105617194000                       # number of overall miss ticks (Tick)
system.cpu.dcache.overallMissLatency::total 105617194000                       # number of overall miss ticks (Tick)
system.cpu.dcache.demandAccesses::cpu.data     15871964                       # number of demand (read+write) accesses (Count)
system.cpu.dcache.demandAccesses::total      15871964                       # number of demand (read+write) accesses (Count)
system.cpu.dcache.overallAccesses::cpu.data     15871964                       # number of overall (read+write) accesses (Count)
system.cpu.dcache.overallAccesses::total     15871964                       # number of overall (read+write) accesses (Count)
system.cpu.dcache.demandMissRate::cpu.data     0.118161                       # miss rate for demand accesses (Ratio)
system.cpu.dcache.demandMissRate::total      0.118161                       # miss rate for demand accesses (Ratio)
system.cpu.dcache.overallMissRate::cpu.data     0.118161                       # miss rate for overall accesses (Ratio)
system.cpu.dcache.overallMissRate::total     0.118161                       # miss rate for overall accesses (Ratio)
system.cpu.dcache.demandAvgMissLatency::cpu.data 56315.654376                       # average overall miss latency in ticks ((Tick/Count))
system.cpu.dcache.demandAvgMissLatency::total 56315.654376                       # average overall miss latency in ticks ((Tick/Count))
system.cpu.dcache.overallAvgMissLatency::cpu.data 56315.654376                       # average overall miss latency ((Tick/Count))
system.cpu.dcache.overallAvgMissLatency::total 56315.654376                       # average overall miss latency ((Tick/Count))
system.cpu.dcache.blockedCycles::no_mshrs            0                       # number of cycles access was blocked (Cycle)
system.cpu.dcache.blockedCycles::no_targets            0                       # number of cycles access was blocked (Cycle)
system.cpu.dcache.blockedCauses::no_mshrs            0                       # number of times access was blocked (Count)
system.cpu.dcache.blockedCauses::no_targets            0                       # number of times access was blocked (Count)
system.cpu.dcache.avgBlocked::no_mshrs            nan                       # average number of cycles each access was blocked ((Cycle/Count))
system.cpu.dcache.avgBlocked::no_targets          nan                       # average number of cycles each access was blocked ((Cycle/Count))
system.cpu.dcache.writebacks::writebacks       359943                       # number of writebacks (Count)
system.cpu.dcache.writebacks::total            359943                       # number of writebacks (Count)
system.cpu.dcache.demandMshrHits::cpu.data      1513455                       # number of demand (read+write) MSHR hits (Count)
system.cpu.dcache.demandMshrHits::total       1513455                       # number of demand (read+write) MSHR hits (Count)
system.cpu.dcache.overallMshrHits::cpu.data      1513455                       # number of overall MSHR hits (Count)
system.cpu.dcache.overallMshrHits::total      1513455                       # number of overall MSHR hits (Count)
system.cpu.dcache.demandMshrMisses::cpu.data       361995                       # number of demand (read+write) MSHR misses (Count)
system.cpu.dcache.demandMshrMisses::total       361995                       # number of demand (read+write) MSHR misses (Count)
system.cpu.dcache.overallMshrMisses::cpu.data       361995                       # number of overall MSHR misses (Count)
system.cpu.dcache.overallMshrMisses::total       361995                       # number of overall MSHR misses (Count)
system.cpu.dcache.overallMshrUncacheable::cpu.data            2                       # number of overall MSHR uncacheable misses (Count)
system.cpu.dcache.overallMshrUncacheable::total            2                       # number of overall MSHR uncacheable misses (Count)
system.cpu.dcache.demandMshrMissLatency::cpu.data  28215578500                       # number of demand (read+write) MSHR miss ticks (Tick)
system.cpu.dcache.demandMshrMissLatency::total  28215578500                       # number of demand (read+write) MSHR miss ticks (Tick)
system.cpu.dcache.overallMshrMissLatency::cpu.data  28215578500                       # number of overall MSHR miss ticks (Tick)
system.cpu.dcache.overallMshrMissLatency::total  28215578500                       # number of overall MSHR miss ticks (Tick)
system.cpu.dcache.demandMshrMissRate::cpu.data     0.022807                       # mshr miss ratio for demand accesses (Ratio)
system.cpu.dcache.demandMshrMissRate::total     0.022807                       # mshr miss ratio for demand accesses (Ratio)
system.cpu.dcache.overallMshrMissRate::cpu.data     0.022807                       # mshr miss ratio for overall accesses (Ratio)
system.cpu.dcache.overallMshrMissRate::total     0.022807                       # mshr miss ratio for overall accesses (Ratio)
system.cpu.dcache.demandAvgMshrMissLatency::cpu.data 77944.663600                       # average overall mshr miss latency ((Tick/Count))
system.cpu.dcache.demandAvgMshrMissLatency::total 77944.663600                       # average overall mshr miss latency ((Tick/Count))
system.cpu.dcache.overallAvgMshrMissLatency::cpu.data 77944.663600                       # average overall mshr miss latency ((Tick/Count))
system.cpu.dcache.overallAvgMshrMissLatency::total 77944.663600                       # average overall mshr miss latency ((Tick/Count))
system.cpu.dcache.replacements                 359943                       # number of replacements (Count)
system.cpu.dcache.ReadReq.hits::cpu.data     10378926                       # number of ReadReq hits (Count)
system.cpu.dcache.ReadReq.hits::total        10378926                       # number of ReadReq hits (Count)
system.cpu.dcache.ReadReq.misses::cpu.data      1164363                       # number of ReadReq misses (Count)
system.cpu.dcache.ReadReq.misses::total       1164363                       # number of ReadReq misses (Count)
system.cpu.dcache.ReadReq.missLatency::cpu.data  58392234500                       # number of ReadReq miss ticks (Tick)
system.cpu.dcache.ReadReq.missLatency::total  58392234500                       # number of ReadReq miss ticks (Tick)
system.cpu.dcache.ReadReq.accesses::cpu.data     11543289                       # number of ReadReq accesses(hits+misses) (Count)
system.cpu.dcache.ReadReq.accesses::total     11543289                       # number of ReadReq accesses(hits+misses) (Count)
system.cpu.dcache.ReadReq.missRate::cpu.data     0.100869                       # miss rate for ReadReq accesses (Ratio)
system.cpu.dcache.ReadReq.missRate::total     0.100869                       # miss rate for ReadReq accesses (Ratio)
system.cpu.dcache.ReadReq.avgMissLatency::cpu.data 50149.510505                       # average ReadReq miss latency ((Tick/Count))
system.cpu.dcache.ReadReq.avgMissLatency::total 50149.510505                       # average ReadReq miss latency ((Tick/Count))
system.cpu.dcache.ReadReq.mshrHits::cpu.data       955560                       # number of ReadReq MSHR hits (Count)
system.cpu.dcache.ReadReq.mshrHits::total       955560                       # number of ReadReq MSHR hits (Count)
system.cpu.dcache.ReadReq.mshrMisses::cpu.data       208803                       # number of ReadReq MSHR misses (Count)
system.cpu.dcache.ReadReq.mshrMisses::total       208803                       # number of ReadReq MSHR misses (Count)
system.cpu.dcache.ReadReq.mshrMissLatency::cpu.data  15679495000                       # number of ReadReq MSHR miss ticks (Tick)
system.cpu.dcache.ReadReq.mshrMissLatency::total  15679495000                       # number of ReadReq MSHR miss ticks (Tick)
system.cpu.dcache.ReadReq.mshrMissRate::cpu.data     0.018089                       # mshr miss rate for ReadReq accesses (Ratio)
system.cpu.dcache.ReadReq.mshrMissRate::total     0.018089                       # mshr miss rate for ReadReq accesses (Ratio)
system.cpu.dcache.ReadReq.avgMshrMissLatency::cpu.data 75092.287946                       # average ReadReq mshr miss latency ((Tick/Count))
system.cpu.dcache.ReadReq.avgMshrMissLatency::total 75092.287946                       # average ReadReq mshr miss latency ((Tick/Count))
system.cpu.dcache.WriteReq.hits::cpu.data      3617588                       # number of WriteReq hits (Count)
system.cpu.dcache.WriteReq.hits::total        3617588                       # number of WriteReq hits (Count)
system.cpu.dcache.WriteReq.misses::cpu.data       711087                       # number of WriteReq misses (Count)
system.cpu.dcache.WriteReq.misses::total       711087                       # number of WriteReq misses (Count)
system.cpu.dcache.WriteReq.missLatency::cpu.data  47224959500                       # number of WriteReq miss ticks (Tick)
system.cpu.dcache.WriteReq.missLatency::total  47224959500                       # number of WriteReq miss ticks (Tick)
system.cpu.dcache.WriteReq.accesses::cpu.data      4328675                       # number of WriteReq accesses(hits+misses) (Count)
system.cpu.dcache.WriteReq.accesses::total      4328675                       # number of WriteReq accesses(hits+misses) (Count)
system.cpu.dcache.WriteReq.missRate::cpu.data     0.164274                       # miss rate for WriteReq accesses (Ratio)
system.cpu.dcache.WriteReq.missRate::total     0.164274                       # miss rate for WriteReq accesses (Ratio)
system.cpu.dcache.WriteReq.avgMissLatency::cpu.data 66412.351091                       # average WriteReq miss latency ((Tick/Count))
system.cpu.dcache.WriteReq.avgMissLatency::total 66412.351091                       # average WriteReq miss latency ((Tick/Count))
system.cpu.dcache.WriteReq.mshrHits::cpu.data       557895                       # number of WriteReq MSHR hits (Count)
system.cpu.dcache.WriteReq.mshrHits::total       557895                       # number of WriteReq MSHR hits (Count)
system.cpu.dcache.WriteReq.mshrMisses::cpu.data       153192                       # number of WriteReq MSHR misses (Count)
system.cpu.dcache.WriteReq.mshrMisses::total       153192                       # number of WriteReq MSHR misses (Count)
system.cpu.dcache.WriteReq.mshrUncacheable::cpu.data            2                       # number of WriteReq MSHR uncacheable (Count)
system.cpu.dcache.WriteReq.mshrUncacheable::total            2                       # number of WriteReq MSHR uncacheable (Count)
system.cpu.dcache.WriteReq.mshrMissLatency::cpu.data  12536083500                       # number of WriteReq MSHR miss ticks (Tick)
system.cpu.dcache.WriteReq.mshrMissLatency::total  12536083500                       # number of WriteReq MSHR miss ticks (Tick)
system.cpu.dcache.WriteReq.mshrMissRate::cpu.data     0.035390                       # mshr miss rate for WriteReq accesses (Ratio)
system.cpu.dcache.WriteReq.mshrMissRate::total     0.035390                       # mshr miss rate for WriteReq accesses (Ratio)
system.cpu.dcache.WriteReq.avgMshrMissLatency::cpu.data 81832.494517                       # average WriteReq mshr miss latency ((Tick/Count))
system.cpu.dcache.WriteReq.avgMshrMissLatency::total 81832.494517                       # average WriteReq mshr miss latency ((Tick/Count))
system.cpu.dcache.power_state.pwrStateResidencyTicks::UNDEFINED  19678265500                       # Cumulative time (in ticks) in various power states (Tick)
system.cpu.dcache.tags.tagsInUse          2042.434494                       # Average ticks per tags in use ((Tick/Count))
system.cpu.dcache.tags.totalRefs              4758263                       # Total number of references to valid blocks. (Count)
system.cpu.dcache.tags.sampledRefs             359943                       # Sample count of references to valid blocks. (Count)
system.cpu.dcache.tags.avgRefs              13.219490                       # Average number of references to valid blocks. ((Count/Count))
system.cpu.dcache.tags.warmupTick              169500                       # The tick when the warmup percentage was hit. (Tick)
system.cpu.dcache.tags.occupancies::cpu.data  2042.434494                       # Average occupied blocks per tick, per requestor ((Count/Tick))
system.cpu.dcache.tags.avgOccs::cpu.data     0.997282                       # Average percentage of cache occupancy ((Ratio/Tick))
system.cpu.dcache.tags.avgOccs::total        0.997282                       # Average percentage of cache occupancy ((Ratio/Tick))
system.cpu.dcache.tags.occupanciesTaskId::1024         2048                       # Occupied blocks per task id (Count)
system.cpu.dcache.tags.ageTaskId_1024::0          174                       # Occupied blocks per task id, per block age (Count)
system.cpu.dcache.tags.ageTaskId_1024::1         1378                       # Occupied blocks per task id, per block age (Count)
system.cpu.dcache.tags.ageTaskId_1024::2          308                       # Occupied blocks per task id, per block age (Count)
system.cpu.dcache.tags.ageTaskId_1024::4          188                       # Occupied blocks per task id, per block age (Count)
system.cpu.dcache.tags.ratioOccsTaskId::1024            1                       # Ratio of occupied blocks and all blocks, per task id (Ratio)
system.cpu.dcache.tags.tagAccesses          127337703                       # Number of tag accesses (Count)
system.cpu.dcache.tags.dataAccesses         127337703                       # Number of data accesses (Count)
system.cpu.dcache.tags.power_state.pwrStateResidencyTicks::UNDEFINED  19678265500                       # Cumulative time (in ticks) in various power states (Tick)
system.cpu.decode.idleCycles                  1135403                       # Number of cycles decode is idle (Cycle)
system.cpu.decode.blockedCycles              29882166                       # Number of cycles decode is blocked (Cycle)
system.cpu.decode.runCycles                   5636234                       # Number of cycles decode is running (Cycle)
system.cpu.decode.unblockCycles               2700822                       # Number of cycles decode is unblocking (Cycle)
system.cpu.decode.squashCycles                    266                       # Number of cycles decode is squashing (Cycle)
system.cpu.decode.branchResolved              1580394                       # Number of times decode resolved a branch (Count)
system.cpu.decode.branchMispred                     3                       # Number of times decode detected a branch misprediction (Count)
system.cpu.decode.decodedInsts               50010317                       # Number of instructions handled by decode (Count)
system.cpu.decode.squashedInsts                    16                       # Number of squashed instructions handled by decode (Count)
system.cpu.decode.mispredictedByPC                  0                       # Number of instructions that mispredicted due to pc (Count)
system.cpu.decode.mispredictedByNPC                 0                       # Number of instructions that mispredicted due to npc (Count)
system.cpu.dtb_walker_cache.demandHits::cpu.mmu.dtb.walker        76582                       # number of demand (read+write) hits (Count)
system.cpu.dtb_walker_cache.demandHits::total        76582                       # number of demand (read+write) hits (Count)
system.cpu.dtb_walker_cache.overallHits::cpu.mmu.dtb.walker        76582                       # number of overall hits (Count)
system.cpu.dtb_walker_cache.overallHits::total        76582                       # number of overall hits (Count)
system.cpu.dtb_walker_cache.demandMisses::cpu.mmu.dtb.walker         5903                       # number of demand (read+write) misses (Count)
system.cpu.dtb_walker_cache.demandMisses::total         5903                       # number of demand (read+write) misses (Count)
system.cpu.dtb_walker_cache.overallMisses::cpu.mmu.dtb.walker         5903                       # number of overall misses (Count)
system.cpu.dtb_walker_cache.overallMisses::total         5903                       # number of overall misses (Count)
system.cpu.dtb_walker_cache.demandMissLatency::cpu.mmu.dtb.walker    520175500                       # number of demand (read+write) miss ticks (Tick)
system.cpu.dtb_walker_cache.demandMissLatency::total    520175500                       # number of demand (read+write) miss ticks (Tick)
system.cpu.dtb_walker_cache.overallMissLatency::cpu.mmu.dtb.walker    520175500                       # number of overall miss ticks (Tick)
system.cpu.dtb_walker_cache.overallMissLatency::total    520175500                       # number of overall miss ticks (Tick)
system.cpu.dtb_walker_cache.demandAccesses::cpu.mmu.dtb.walker        82485                       # number of demand (read+write) accesses (Count)
system.cpu.dtb_walker_cache.demandAccesses::total        82485                       # number of demand (read+write) accesses (Count)
system.cpu.dtb_walker_cache.overallAccesses::cpu.mmu.dtb.walker        82485                       # number of overall (read+write) accesses (Count)
system.cpu.dtb_walker_cache.overallAccesses::total        82485                       # number of overall (read+write) accesses (Count)
system.cpu.dtb_walker_cache.demandMissRate::cpu.mmu.dtb.walker     0.071565                       # miss rate for demand accesses (Ratio)
system.cpu.dtb_walker_cache.demandMissRate::total     0.071565                       # miss rate for demand accesses (Ratio)
system.cpu.dtb_walker_cache.overallMissRate::cpu.mmu.dtb.walker     0.071565                       # miss rate for overall accesses (Ratio)
system.cpu.dtb_walker_cache.overallMissRate::total     0.071565                       # miss rate for overall accesses (Ratio)
system.cpu.dtb_walker_cache.demandAvgMissLatency::cpu.mmu.dtb.walker 88120.531933                       # average overall miss latency in ticks ((Tick/Count))
system.cpu.dtb_walker_cache.demandAvgMissLatency::total 88120.531933                       # average overall miss latency in ticks ((Tick/Count))
system.cpu.dtb_walker_cache.overallAvgMissLatency::cpu.mmu.dtb.walker 88120.531933                       # average overall miss latency ((Tick/Count))
system.cpu.dtb_walker_cache.overallAvgMissLatency::total 88120.531933                       # average overall miss latency ((Tick/Count))
system.cpu.dtb_walker_cache.blockedCycles::no_mshrs            0                       # number of cycles access was blocked (Cycle)
system.cpu.dtb_walker_cache.blockedCycles::no_targets            0                       # number of cycles access was blocked (Cycle)
system.cpu.dtb_walker_cache.blockedCauses::no_mshrs            0                       # number of times access was blocked (Count)
system.cpu.dtb_walker_cache.blockedCauses::no_targets            0                       # number of times access was blocked (Count)
system.cpu.dtb_walker_cache.avgBlocked::no_mshrs          nan                       # average number of cycles each access was blocked ((Cycle/Count))
system.cpu.dtb_walker_cache.avgBlocked::no_targets          nan                       # average number of cycles each access was blocked ((Cycle/Count))
system.cpu.dtb_walker_cache.demandMshrMisses::cpu.mmu.dtb.walker         5903                       # number of demand (read+write) MSHR misses (Count)
system.cpu.dtb_walker_cache.demandMshrMisses::total         5903                       # number of demand (read+write) MSHR misses (Count)
system.cpu.dtb_walker_cache.overallMshrMisses::cpu.mmu.dtb.walker         5903                       # number of overall MSHR misses (Count)
system.cpu.dtb_walker_cache.overallMshrMisses::total         5903                       # number of overall MSHR misses (Count)
system.cpu.dtb_walker_cache.demandMshrMissLatency::cpu.mmu.dtb.walker    514272500                       # number of demand (read+write) MSHR miss ticks (Tick)
system.cpu.dtb_walker_cache.demandMshrMissLatency::total    514272500                       # number of demand (read+write) MSHR miss ticks (Tick)
system.cpu.dtb_walker_cache.overallMshrMissLatency::cpu.mmu.dtb.walker    514272500                       # number of overall MSHR miss ticks (Tick)
system.cpu.dtb_walker_cache.overallMshrMissLatency::total    514272500                       # number of overall MSHR miss ticks (Tick)
system.cpu.dtb_walker_cache.demandMshrMissRate::cpu.mmu.dtb.walker     0.071565                       # mshr miss ratio for demand accesses (Ratio)
system.cpu.dtb_walker_cache.demandMshrMissRate::total     0.071565                       # mshr miss ratio for demand accesses (Ratio)
system.cpu.dtb_walker_cache.overallMshrMissRate::cpu.mmu.dtb.walker     0.071565                       # mshr miss ratio for overall accesses (Ratio)
system.cpu.dtb_walker_cache.overallMshrMissRate::total     0.071565                       # mshr miss ratio for overall accesses (Ratio)
system.cpu.dtb_walker_cache.demandAvgMshrMissLatency::cpu.mmu.dtb.walker 87120.531933                       # average overall mshr miss latency ((Tick/Count))
system.cpu.dtb_walker_cache.demandAvgMshrMissLatency::total 87120.531933                       # average overall mshr miss latency ((Tick/Count))
system.cpu.dtb_walker_cache.overallAvgMshrMissLatency::cpu.mmu.dtb.walker 87120.531933                       # average overall mshr miss latency ((Tick/Count))
system.cpu.dtb_walker_cache.overallAvgMshrMissLatency::total 87120.531933                       # average overall mshr miss latency ((Tick/Count))
system.cpu.dtb_walker_cache.replacements         5887                       # number of replacements (Count)
system.cpu.dtb_walker_cache.ReadReq.hits::cpu.mmu.dtb.walker        76582                       # number of ReadReq hits (Count)
system.cpu.dtb_walker_cache.ReadReq.hits::total        76582                       # number of ReadReq hits (Count)
system.cpu.dtb_walker_cache.ReadReq.misses::cpu.mmu.dtb.walker         5903                       # number of ReadReq misses (Count)
system.cpu.dtb_walker_cache.ReadReq.misses::total         5903                       # number of ReadReq misses (Count)
system.cpu.dtb_walker_cache.ReadReq.missLatency::cpu.mmu.dtb.walker    520175500                       # number of ReadReq miss ticks (Tick)
system.cpu.dtb_walker_cache.ReadReq.missLatency::total    520175500                       # number of ReadReq miss ticks (Tick)
system.cpu.dtb_walker_cache.ReadReq.accesses::cpu.mmu.dtb.walker        82485                       # number of ReadReq accesses(hits+misses) (Count)
system.cpu.dtb_walker_cache.ReadReq.accesses::total        82485                       # number of ReadReq accesses(hits+misses) (Count)
system.cpu.dtb_walker_cache.ReadReq.missRate::cpu.mmu.dtb.walker     0.071565                       # miss rate for ReadReq accesses (Ratio)
system.cpu.dtb_walker_cache.ReadReq.missRate::total     0.071565                       # miss rate for ReadReq accesses (Ratio)
system.cpu.dtb_walker_cache.ReadReq.avgMissLatency::cpu.mmu.dtb.walker 88120.531933                       # average ReadReq miss latency ((Tick/Count))
system.cpu.dtb_walker_cache.ReadReq.avgMissLatency::total 88120.531933                       # average ReadReq miss latency ((Tick/Count))
system.cpu.dtb_walker_cache.ReadReq.mshrMisses::cpu.mmu.dtb.walker         5903                       # number of ReadReq MSHR misses (Count)
system.cpu.dtb_walker_cache.ReadReq.mshrMisses::total         5903                       # number of ReadReq MSHR misses (Count)
system.cpu.dtb_walker_cache.ReadReq.mshrMissLatency::cpu.mmu.dtb.walker    514272500                       # number of ReadReq MSHR miss ticks (Tick)
system.cpu.dtb_walker_cache.ReadReq.mshrMissLatency::total    514272500                       # number of ReadReq MSHR miss ticks (Tick)
system.cpu.dtb_walker_cache.ReadReq.mshrMissRate::cpu.mmu.dtb.walker     0.071565                       # mshr miss rate for ReadReq accesses (Ratio)
system.cpu.dtb_walker_cache.ReadReq.mshrMissRate::total     0.071565                       # mshr miss rate for ReadReq accesses (Ratio)
system.cpu.dtb_walker_cache.ReadReq.avgMshrMissLatency::cpu.mmu.dtb.walker 87120.531933                       # average ReadReq mshr miss latency ((Tick/Count))
system.cpu.dtb_walker_cache.ReadReq.avgMshrMissLatency::total 87120.531933                       # average ReadReq mshr miss latency ((Tick/Count))
system.cpu.dtb_walker_cache.power_state.pwrStateResidencyTicks::UNDEFINED  19678265500                       # Cumulative time (in ticks) in various power states (Tick)
system.cpu.dtb_walker_cache.tags.tagsInUse    15.996880                       # Average ticks per tags in use ((Tick/Count))
system.cpu.dtb_walker_cache.tags.totalRefs        54627                       # Total number of references to valid blocks. (Count)
system.cpu.dtb_walker_cache.tags.sampledRefs         5887                       # Sample count of references to valid blocks. (Count)
system.cpu.dtb_walker_cache.tags.avgRefs     9.279259                       # Average number of references to valid blocks. ((Count/Count))
system.cpu.dtb_walker_cache.tags.warmupTick      1863500                       # The tick when the warmup percentage was hit. (Tick)
system.cpu.dtb_walker_cache.tags.occupancies::cpu.mmu.dtb.walker    15.996880                       # Average occupied blocks per tick, per requestor ((Count/Tick))
system.cpu.dtb_walker_cache.tags.avgOccs::cpu.mmu.dtb.walker     0.999805                       # Average percentage of cache occupancy ((Ratio/Tick))
system.cpu.dtb_walker_cache.tags.avgOccs::total     0.999805                       # Average percentage of cache occupancy ((Ratio/Tick))
system.cpu.dtb_walker_cache.tags.occupanciesTaskId::1024           16                       # Occupied blocks per task id (Count)
system.cpu.dtb_walker_cache.tags.ageTaskId_1024::0            3                       # Occupied blocks per task id, per block age (Count)
system.cpu.dtb_walker_cache.tags.ageTaskId_1024::1            5                       # Occupied blocks per task id, per block age (Count)
system.cpu.dtb_walker_cache.tags.ageTaskId_1024::2            7                       # Occupied blocks per task id, per block age (Count)
system.cpu.dtb_walker_cache.tags.ageTaskId_1024::4            1                       # Occupied blocks per task id, per block age (Count)
system.cpu.dtb_walker_cache.tags.ratioOccsTaskId::1024            1                       # Ratio of occupied blocks and all blocks, per task id (Ratio)
system.cpu.dtb_walker_cache.tags.tagAccesses       170873                       # Number of tag accesses (Count)
system.cpu.dtb_walker_cache.tags.dataAccesses       170873                       # Number of data accesses (Count)
system.cpu.dtb_walker_cache.tags.power_state.pwrStateResidencyTicks::UNDEFINED  19678265500                       # Cumulative time (in ticks) in various power states (Tick)
system.cpu.fetch.icacheStallCycles               3394                       # Number of cycles fetch is stalled on an Icache miss (Cycle)
system.cpu.fetch.insts                       50019154                       # Number of instructions fetch has processed (Count)
system.cpu.fetch.branches                     1612618                       # Number of branches that fetch encountered (Count)
system.cpu.fetch.predictedBranches            1580699                       # Number of branches that fetch has predicted taken (Count)
system.cpu.fetch.cycles                      39351204                       # Number of cycles fetch has run and was not squashing or blocked (Cycle)
system.cpu.fetch.squashCycles                     538                       # Number of cycles fetch has spent squashing (Cycle)
system.cpu.fetch.tlbCycles                         12                       # Number of cycles fetch has spent waiting for tlb (Cycle)
system.cpu.fetch.miscStallCycles                    1                       # Number of cycles fetch has spent waiting on interrupts, or bad addresses, or out of MSHRs (Cycle)
system.cpu.fetch.icacheWaitRetryStallCycles           11                       # Number of stall cycles due to full MSHR (Cycle)
system.cpu.fetch.cacheLines                   4349457                       # Number of cache lines fetched (Count)
system.cpu.fetch.icacheSquashes                    27                       # Number of outstanding Icache misses that were squashed (Count)
system.cpu.fetch.nisnDist::samples           39354891                       # Number of instructions fetched each cycle (Total) (Count)
system.cpu.fetch.nisnDist::mean              1.270977                       # Number of instructions fetched each cycle (Total) (Count)
system.cpu.fetch.nisnDist::stdev             2.546404                       # Number of instructions fetched each cycle (Total) (Count)
system.cpu.fetch.nisnDist::underflows               0      0.00%      0.00% # Number of instructions fetched each cycle (Total) (Count)
system.cpu.fetch.nisnDist::0                 29843042     75.83%     75.83% # Number of instructions fetched each cycle (Total) (Count)
system.cpu.fetch.nisnDist::1                   797875      2.03%     77.86% # Number of instructions fetched each cycle (Total) (Count)
system.cpu.fetch.nisnDist::2                  1307998      3.32%     81.18% # Number of instructions fetched each cycle (Total) (Count)
system.cpu.fetch.nisnDist::3                   510938      1.30%     82.48% # Number of instructions fetched each cycle (Total) (Count)
system.cpu.fetch.nisnDist::4                  1026941      2.61%     85.09% # Number of instructions fetched each cycle (Total) (Count)
system.cpu.fetch.nisnDist::5                   378934      0.96%     86.05% # Number of instructions fetched each cycle (Total) (Count)
system.cpu.fetch.nisnDist::6                  1783458      4.53%     90.58% # Number of instructions fetched each cycle (Total) (Count)
system.cpu.fetch.nisnDist::7                  1276353      3.24%     93.83% # Number of instructions fetched each cycle (Total) (Count)
system.cpu.fetch.nisnDist::8                  2429352      6.17%    100.00% # Number of instructions fetched each cycle (Total) (Count)
system.cpu.fetch.nisnDist::overflows                0      0.00%    100.00% # Number of instructions fetched each cycle (Total) (Count)
system.cpu.fetch.nisnDist::min_value                0                       # Number of instructions fetched each cycle (Total) (Count)
system.cpu.fetch.nisnDist::max_value                8                       # Number of instructions fetched each cycle (Total) (Count)
system.cpu.fetch.nisnDist::total             39354891                       # Number of instructions fetched each cycle (Total) (Count)
system.cpu.fetch.branchRate                  0.040975                       # Number of branch fetches per cycle (Ratio)
system.cpu.fetch.rate                        1.270924                       # Number of inst fetches per cycle ((Count/Cycle))
system.cpu.icache.demandHits::cpu.inst        4349396                       # number of demand (read+write) hits (Count)
system.cpu.icache.demandHits::total           4349396                       # number of demand (read+write) hits (Count)
system.cpu.icache.overallHits::cpu.inst       4349396                       # number of overall hits (Count)
system.cpu.icache.overallHits::total          4349396                       # number of overall hits (Count)
system.cpu.icache.demandMisses::cpu.inst           61                       # number of demand (read+write) misses (Count)
system.cpu.icache.demandMisses::total              61                       # number of demand (read+write) misses (Count)
system.cpu.icache.overallMisses::cpu.inst           61                       # number of overall misses (Count)
system.cpu.icache.overallMisses::total             61                       # number of overall misses (Count)
system.cpu.icache.demandMissLatency::cpu.inst      4302000                       # number of demand (read+write) miss ticks (Tick)
system.cpu.icache.demandMissLatency::total      4302000                       # number of demand (read+write) miss ticks (Tick)
system.cpu.icache.overallMissLatency::cpu.inst      4302000                       # number of overall miss ticks (Tick)
system.cpu.icache.overallMissLatency::total      4302000                       # number of overall miss ticks (Tick)
system.cpu.icache.demandAccesses::cpu.inst      4349457                       # number of demand (read+write) accesses (Count)
system.cpu.icache.demandAccesses::total       4349457                       # number of demand (read+write) accesses (Count)
system.cpu.icache.overallAccesses::cpu.inst      4349457                       # number of overall (read+write) accesses (Count)
system.cpu.icache.overallAccesses::total      4349457                       # number of overall (read+write) accesses (Count)
system.cpu.icache.demandMissRate::cpu.inst     0.000014                       # miss rate for demand accesses (Ratio)
system.cpu.icache.demandMissRate::total      0.000014                       # miss rate for demand accesses (Ratio)
system.cpu.icache.overallMissRate::cpu.inst     0.000014                       # miss rate for overall accesses (Ratio)
system.cpu.icache.overallMissRate::total     0.000014                       # miss rate for overall accesses (Ratio)
system.cpu.icache.demandAvgMissLatency::cpu.inst 70524.590164                       # average overall miss latency in ticks ((Tick/Count))
system.cpu.icache.demandAvgMissLatency::total 70524.590164                       # average overall miss latency in ticks ((Tick/Count))
system.cpu.icache.overallAvgMissLatency::cpu.inst 70524.590164                       # average overall miss latency ((Tick/Count))
system.cpu.icache.overallAvgMissLatency::total 70524.590164                       # average overall miss latency ((Tick/Count))
system.cpu.icache.blockedCycles::no_mshrs          354                       # number of cycles access was blocked (Cycle)
system.cpu.icache.blockedCycles::no_targets            0                       # number of cycles access was blocked (Cycle)
system.cpu.icache.blockedCauses::no_mshrs            4                       # number of times access was blocked (Count)
system.cpu.icache.blockedCauses::no_targets            0                       # number of times access was blocked (Count)
system.cpu.icache.avgBlocked::no_mshrs      88.500000                       # average number of cycles each access was blocked ((Cycle/Count))
system.cpu.icache.avgBlocked::no_targets          nan                       # average number of cycles each access was blocked ((Cycle/Count))
system.cpu.icache.demandMshrHits::cpu.inst           20                       # number of demand (read+write) MSHR hits (Count)
system.cpu.icache.demandMshrHits::total            20                       # number of demand (read+write) MSHR hits (Count)
system.cpu.icache.overallMshrHits::cpu.inst           20                       # number of overall MSHR hits (Count)
system.cpu.icache.overallMshrHits::total           20                       # number of overall MSHR hits (Count)
system.cpu.icache.demandMshrMisses::cpu.inst           41                       # number of demand (read+write) MSHR misses (Count)
system.cpu.icache.demandMshrMisses::total           41                       # number of demand (read+write) MSHR misses (Count)
system.cpu.icache.overallMshrMisses::cpu.inst           41                       # number of overall MSHR misses (Count)
system.cpu.icache.overallMshrMisses::total           41                       # number of overall MSHR misses (Count)
system.cpu.icache.demandMshrMissLatency::cpu.inst      3018500                       # number of demand (read+write) MSHR miss ticks (Tick)
system.cpu.icache.demandMshrMissLatency::total      3018500                       # number of demand (read+write) MSHR miss ticks (Tick)
system.cpu.icache.overallMshrMissLatency::cpu.inst      3018500                       # number of overall MSHR miss ticks (Tick)
system.cpu.icache.overallMshrMissLatency::total      3018500                       # number of overall MSHR miss ticks (Tick)
system.cpu.icache.demandMshrMissRate::cpu.inst     0.000009                       # mshr miss ratio for demand accesses (Ratio)
[...]
system.mem_ctrls.dram.bytesPerActivate::gmean   219.092626                       # Bytes accessed per row activation (Byte)
system.mem_ctrls.dram.bytesPerActivate::stdev   325.274065                       # Bytes accessed per row activation (Byte)
system.mem_ctrls.dram.bytesPerActivate::0-127        27723     29.46%     29.46% # Bytes accessed per row activation (Byte)
system.mem_ctrls.dram.bytesPerActivate::128-255        20315     21.59%     51.05% # Bytes accessed per row activation (Byte)
system.mem_ctrls.dram.bytesPerActivate::256-383        11882     12.63%     63.67% # Bytes accessed per row activation (Byte)
system.mem_ctrls.dram.bytesPerActivate::384-511         7901      8.40%     72.07% # Bytes accessed per row activation (Byte)
system.mem_ctrls.dram.bytesPerActivate::512-639         5994      6.37%     78.44% # Bytes accessed per row activation (Byte)
system.mem_ctrls.dram.bytesPerActivate::640-767         4384      4.66%     83.10% # Bytes accessed per row activation (Byte)
system.mem_ctrls.dram.bytesPerActivate::768-895         3171      3.37%     86.47% # Bytes accessed per row activation (Byte)
system.mem_ctrls.dram.bytesPerActivate::896-1023         2622      2.79%     89.25% # Bytes accessed per row activation (Byte)
system.mem_ctrls.dram.bytesPerActivate::1024-1151        10114     10.75%    100.00% # Bytes accessed per row activation (Byte)
system.mem_ctrls.dram.bytesPerActivate::total        94106                       # Bytes accessed per row activation (Byte)
system.mem_ctrls.dram.bytesRead              16649728                       # Total bytes read (Byte)
system.mem_ctrls.dram.bytesWritten           16366272                       # Total bytes written (Byte)
system.mem_ctrls.dram.avgRdBW              805.006361                       # Average DRAM read bandwidth in MiBytes/s ((Byte/Second))
system.mem_ctrls.dram.avgWrBW              791.301399                       # Average DRAM write bandwidth in MiBytes/s ((Byte/Second))
system.mem_ctrls.dram.peakBW                 19207.00                       # Theoretical peak bandwidth in MiByte/s ((Byte/Second))
system.mem_ctrls.dram.busUtil                    8.31                       # Data bus utilization in percentage (Ratio)
system.mem_ctrls.dram.busUtilRead                4.19                       # Data bus utilization in percentage for reads (Ratio)
system.mem_ctrls.dram.busUtilWrite               4.12                       # Data bus utilization in percentage for writes (Ratio)
system.mem_ctrls.dram.pageHitRate               81.76                       # Row buffer hit rate, read and write combined (Ratio)
system.mem_ctrls.dram.power_state.pwrStateResidencyTicks::UNDEFINED  20682728500                       # Cumulative time (in ticks) in various power states (Tick)
system.mem_ctrls.dram.rank0.actEnergy    151914409.920000                       # Energy for activate commands per rank (pJ) (Joule)
system.mem_ctrls.dram.rank0.preEnergy    201972406.708801                       # Energy for precharge commands per rank (pJ) (Joule)
system.mem_ctrls.dram.rank0.readEnergy   560201477.740797                       # Energy for read commands per rank (pJ) (Joule)
system.mem_ctrls.dram.rank0.writeEnergy  484658059.200001                       # Energy for write commands per rank (pJ) (Joule)
system.mem_ctrls.dram.rank0.refreshEnergy 3679562977.843259                       # Energy for refresh commands per rank (pJ) (Joule)
system.mem_ctrls.dram.rank0.actBackEnergy 16711075466.971024                       # Energy for active background per rank (pJ) (Joule)
system.mem_ctrls.dram.rank0.preBackEnergy 661536847.372802                       # Energy for precharge background per rank (pJ) (Joule)
system.mem_ctrls.dram.rank0.actPowerDownEnergy            0                       # Energy for active power-down per rank (pJ) (Joule)
system.mem_ctrls.dram.rank0.prePowerDownEnergy            0                       # Energy for precharge power-down per rank (pJ) (Joule)
system.mem_ctrls.dram.rank0.selfRefreshEnergy            0                       # Energy for self refresh per rank (pJ) (Joule)
system.mem_ctrls.dram.rank0.totalEnergy  22450921645.756844                       # Total energy per rank (pJ) (Joule)
system.mem_ctrls.dram.rank0.averagePower  1085.491290                       # Core power per rank (mW) (Watt)
system.mem_ctrls.dram.rank0.totalIdleTime            0                       # Total Idle time Per DRAM Rank (Tick)
system.mem_ctrls.dram.rank0.pwrStateTime::IDLE    936341424                       # Time in different power states (Tick)
system.mem_ctrls.dram.rank0.pwrStateTime::REF    929600000                       # Time in different power states (Tick)
system.mem_ctrls.dram.rank0.pwrStateTime::SREF            0                       # Time in different power states (Tick)
system.mem_ctrls.dram.rank0.pwrStateTime::PRE_PDN            0                       # Time in different power states (Tick)
system.mem_ctrls.dram.rank0.pwrStateTime::ACT  18816787076                       # Time in different power states (Tick)
system.mem_ctrls.dram.rank0.pwrStateTime::ACT_PDN            0                       # Time in different power states (Tick)
system.mem_ctrls.dram.rank1.actEnergy    141585103.296000                       # Energy for activate commands per rank (pJ) (Joule)
system.mem_ctrls.dram.rank1.preEnergy    188223140.616001                       # Energy for precharge commands per rank (pJ) (Joule)
system.mem_ctrls.dram.rank1.readEnergy   534080250.412796                       # Energy for read commands per rank (pJ) (Joule)
system.mem_ctrls.dram.rank1.writeEnergy  476475813.407999                       # Energy for write commands per rank (pJ) (Joule)
system.mem_ctrls.dram.rank1.refreshEnergy 3679562977.843259                       # Energy for refresh commands per rank (pJ) (Joule)
system.mem_ctrls.dram.rank1.actBackEnergy 16575026820.206234                       # Energy for active background per rank (pJ) (Joule)
system.mem_ctrls.dram.rank1.preBackEnergy 766071400.819208                       # Energy for precharge background per rank (pJ) (Joule)
system.mem_ctrls.dram.rank1.actPowerDownEnergy            0                       # Energy for active power-down per rank (pJ) (Joule)
system.mem_ctrls.dram.rank1.prePowerDownEnergy            0                       # Energy for precharge power-down per rank (pJ) (Joule)
system.mem_ctrls.dram.rank1.selfRefreshEnergy            0                       # Energy for self refresh per rank (pJ) (Joule)
system.mem_ctrls.dram.rank1.totalEnergy  22361025506.601616                       # Total energy per rank (pJ) (Joule)
system.mem_ctrls.dram.rank1.averagePower  1081.144855                       # Core power per rank (mW) (Watt)
system.mem_ctrls.dram.rank1.totalIdleTime            0                       # Total Idle time Per DRAM Rank (Tick)
system.mem_ctrls.dram.rank1.pwrStateTime::IDLE   1096304066                       # Time in different power states (Tick)
system.mem_ctrls.dram.rank1.pwrStateTime::REF    929600000                       # Time in different power states (Tick)
system.mem_ctrls.dram.rank1.pwrStateTime::SREF            0                       # Time in different power states (Tick)
system.mem_ctrls.dram.rank1.pwrStateTime::PRE_PDN            0                       # Time in different power states (Tick)
system.mem_ctrls.dram.rank1.pwrStateTime::ACT  18656824434                       # Time in different power states (Tick)
system.mem_ctrls.dram.rank1.pwrStateTime::ACT_PDN            0                       # Time in different power states (Tick)
system.mem_ctrls.power_state.pwrStateResidencyTicks::UNDEFINED  20682728500                       # Cumulative time (in ticks) in various power states (Tick)
system.membus.transDist::ReadResp              242212                       # Transaction distribution (Count)
system.membus.transDist::WritebackDirty         99624                       # Transaction distribution (Count)
system.membus.transDist::WritebackClean        156095                       # Transaction distribution (Count)
system.membus.transDist::CleanEvict              4248                       # Transaction distribution (Count)
system.membus.transDist::ReadExReq              17939                       # Transaction distribution (Count)
system.membus.transDist::ReadExResp             17942                       # Transaction distribution (Count)
system.membus.transDist::ReadCleanReq          242213                       # Transaction distribution (Count)
system.membus.pktCount_system.l2.mem_side_port::system.mem_ctrls.port       780273                       # Packet count per connected requestor and responder (Count)
system.membus.pktCount_system.l2.mem_side_port::total       780273                       # Packet count per connected requestor and responder (Count)
system.membus.pktCount::total                  780273                       # Packet count per connected requestor and responder (Count)
system.membus.pktSize_system.l2.mem_side_port::system.mem_ctrls.port     33015872                       # Cumulative packet size per connected requestor and responder (Byte)
system.membus.pktSize_system.l2.mem_side_port::total     33015872                       # Cumulative packet size per connected requestor and responder (Byte)
system.membus.pktSize::total                 33015872                       # Cumulative packet size per connected requestor and responder (Byte)
system.membus.snoops                                0                       # Total snoops (Count)
system.membus.snoopTraffic                          0                       # Total snoop traffic (Byte)
system.membus.snoopFanout::samples             260152                       # Request fanout histogram (Count)
system.membus.snoopFanout::mean                     0                       # Request fanout histogram (Count)
system.membus.snoopFanout::stdev                    0                       # Request fanout histogram (Count)
system.membus.snoopFanout::underflows               0      0.00%      0.00% # Request fanout histogram (Count)
system.membus.snoopFanout::0                   260152    100.00%    100.00% # Request fanout histogram (Count)
system.membus.snoopFanout::1                        0      0.00%    100.00% # Request fanout histogram (Count)
system.membus.snoopFanout::2                        0      0.00%    100.00% # Request fanout histogram (Count)
system.membus.snoopFanout::overflows                0      0.00%    100.00% # Request fanout histogram (Count)
system.membus.snoopFanout::min_value                0                       # Request fanout histogram (Count)
system.membus.snoopFanout::max_value                0                       # Request fanout histogram (Count)
system.membus.snoopFanout::total               260152                       # Request fanout histogram (Count)
system.membus.badaddr_responder.power_state.pwrStateResidencyTicks::UNDEFINED  20682728500                       # Cumulative time (in ticks) in various power states (Tick)
system.membus.power_state.pwrStateResidencyTicks::UNDEFINED  20682728500                       # Cumulative time (in ticks) in various power states (Tick)
system.membus.reqLayer1.occupancy          1716426500                       # Layer occupancy (ticks) (Tick)
system.membus.reqLayer1.utilization               0.1                       # Layer utilization (Ratio)
system.membus.respLayer2.occupancy         1417547616                       # Layer occupancy (ticks) (Tick)
system.membus.respLayer2.utilization              0.1                       # Layer utilization (Ratio)
system.membus.snoop_filter.totRequests         520119                       # Total number of requests made to the snoop filter. (Count)
system.membus.snoop_filter.hitSingleRequests       260237                       # Number of requests hitting in the snoop filter with a single holder of the requested data. (Count)
system.membus.snoop_filter.hitMultiRequests            0                       # Number of requests hitting in the snoop filter with multiple (>1) holders of the requested data. (Count)
system.membus.snoop_filter.totSnoops                0                       # Total number of snoops made to the snoop filter. (Count)
system.membus.snoop_filter.hitSingleSnoops            0                       # Number of snoops hitting in the snoop filter with a single holder of the requested data. (Count)
system.membus.snoop_filter.hitMultiSnoops            0                       # Number of snoops hitting in the snoop filter with multiple (>1) holders of the requested data. (Count)
system.mmcs.power_state.pwrStateResidencyTicks::UNDEFINED  20682728500                       # Cumulative time (in ticks) in various power states (Tick)
system.tol2bus.transDist::ReadResp             256853                       # Transaction distribution (Count)
system.tol2bus.transDist::WritebackDirty       198604                       # Transaction distribution (Count)
system.tol2bus.transDist::WritebackClean       327349                       # Transaction distribution (Count)
system.tol2bus.transDist::CleanEvict             4519                       # Transaction distribution (Count)
system.tol2bus.transDist::ReadExReq             17939                       # Transaction distribution (Count)
system.tol2bus.transDist::ReadExResp            17942                       # Transaction distribution (Count)
system.tol2bus.transDist::ReadCleanReq             40                       # Transaction distribution (Count)
system.tol2bus.transDist::ReadSharedReq        256814                       # Transaction distribution (Count)
system.tol2bus.pktCount_system.cpu.icache.mem_side_port::system.l2.cpu_side_port           80                       # Packet count per connected requestor and responder (Count)
system.tol2bus.pktCount_system.cpu.dcache.mem_side_port::system.l2.cpu_side_port       810700                       # Packet count per connected requestor and responder (Count)
system.tol2bus.pktCount_system.cpu.itb_walker_cache.mem_side_port::system.l2.cpu_side_port            4                       # Packet count per connected requestor and responder (Count)
system.tol2bus.pktCount_system.cpu.dtb_walker_cache.mem_side_port::system.l2.cpu_side_port        13557                       # Packet count per connected requestor and responder (Count)
system.tol2bus.pktCount::total                 824341                       # Packet count per connected requestor and responder (Count)
system.tol2bus.pktSize_system.cpu.icache.mem_side_port::system.l2.cpu_side_port         2560                       # Cumulative packet size per connected requestor and responder (Byte)
system.tol2bus.pktSize_system.cpu.dcache.mem_side_port::system.l2.cpu_side_port     34589952                       # Cumulative packet size per connected requestor and responder (Byte)
system.tol2bus.pktSize_system.cpu.itb_walker_cache.mem_side_port::system.l2.cpu_side_port          128                       # Cumulative packet size per connected requestor and responder (Byte)
system.tol2bus.pktSize_system.cpu.dtb_walker_cache.mem_side_port::system.l2.cpu_side_port       289216                       # Cumulative packet size per connected requestor and responder (Byte)
system.tol2bus.pktSize::total                34881856                       # Cumulative packet size per connected requestor and responder (Byte)
system.tol2bus.snoops                          255719                       # Total snoops (Count)
system.tol2bus.snoopTraffic                  16366016                       # Total snoop traffic (Byte)
system.tol2bus.snoopFanout::samples            530512                       # Request fanout histogram (Count)
system.tol2bus.snoopFanout::mean             0.000509                       # Request fanout histogram (Count)
system.tol2bus.snoopFanout::stdev            0.022554                       # Request fanout histogram (Count)
system.tol2bus.snoopFanout::underflows              0      0.00%      0.00% # Request fanout histogram (Count)
system.tol2bus.snoopFanout::0                  530242     99.95%     99.95% # Request fanout histogram (Count)
system.tol2bus.snoopFanout::1                     270      0.05%    100.00% # Request fanout histogram (Count)
system.tol2bus.snoopFanout::2                       0      0.00%    100.00% # Request fanout histogram (Count)
system.tol2bus.snoopFanout::3                       0      0.00%    100.00% # Request fanout histogram (Count)
system.tol2bus.snoopFanout::4                       0      0.00%    100.00% # Request fanout histogram (Count)
system.tol2bus.snoopFanout::overflows               0      0.00%    100.00% # Request fanout histogram (Count)
system.tol2bus.snoopFanout::min_value               0                       # Request fanout histogram (Count)
system.tol2bus.snoopFanout::max_value               1                       # Request fanout histogram (Count)
system.tol2bus.snoopFanout::total              530512                       # Request fanout histogram (Count)
system.tol2bus.power_state.pwrStateResidencyTicks::UNDEFINED  20682728500                       # Cumulative time (in ticks) in various power states (Tick)
system.tol2bus.reqLayer0.occupancy          409890000                       # Layer occupancy (ticks) (Tick)
system.tol2bus.reqLayer0.utilization              0.0                       # Layer utilization (Ratio)
system.tol2bus.respLayer0.occupancy             40000                       # Layer occupancy (ticks) (Tick)
system.tol2bus.respLayer0.utilization             0.0                       # Layer utilization (Ratio)
system.tol2bus.respLayer1.occupancy         270234000                       # Layer occupancy (ticks) (Tick)
system.tol2bus.respLayer1.utilization             0.0                       # Layer utilization (Ratio)
system.tol2bus.respLayer2.occupancy              2000                       # Layer occupancy (ticks) (Tick)
system.tol2bus.respLayer2.utilization             0.0                       # Layer utilization (Ratio)
system.tol2bus.respLayer3.occupancy           4519000                       # Layer occupancy (ticks) (Tick)
system.tol2bus.respLayer3.utilization             0.0                       # Layer utilization (Ratio)
system.tol2bus.snoop_filter.totRequests        549546                       # Total number of requests made to the snoop filter. (Count)
system.tol2bus.snoop_filter.hitSingleRequests       274752                       # Number of requests hitting in the snoop filter with a single holder of the requested data. (Count)
system.tol2bus.snoop_filter.hitMultiRequests          271                       # Number of requests hitting in the snoop filter with multiple (>1) holders of the requested data. (Count)
system.tol2bus.snoop_filter.totSnoops               0                       # Total number of snoops made to the snoop filter. (Count)
system.tol2bus.snoop_filter.hitSingleSnoops            0                       # Number of snoops hitting in the snoop filter with a single holder of the requested data. (Count)
system.tol2bus.snoop_filter.hitMultiSnoops            0                       # Number of snoops hitting in the snoop filter with multiple (>1) holders of the requested data. (Count)
system.uartlite.power_state.pwrStateResidencyTicks::UNDEFINED  20682728500                       # Cumulative time (in ticks) in various power states (Tick)
system.voltage_domain.voltage                       1                       # Voltage in Volts (Volt)
system.workload.inst.arm                            0                       # number of arm instructions executed (Count)
system.workload.inst.quiesce                        0                       # number of quiesce instructions executed (Count)

---------- End Simulation Statistics   ----------
