
---------- Begin Simulation Statistics ----------
simSeconds                                   0.003705                       # Number of seconds simulated (Second)
simTicks                                   3704847500                       # Number of ticks simulated (Tick)
finalTick                                  3704847500                       # Number of ticks from beginning of simulation (restored from checkpoints and never reset) (Tick)
simFreq                                  1000000000000                       # The number of ticks per simulated second ((Tick/Second))
hostSeconds                                     50.87                       # Real time elapsed on the host (Second)
hostTickRate                                 72826148                       # The number of ticks simulated per host second (ticks/s) ((Tick/Second))
hostMemory                                   16928988                       # Number of bytes of host memory used (Byte)
simInsts                                     10000004                       # Number of instructions simulated (Count)
simOps                                       10678972                       # Number of ops (including micro ops) simulated (Count)
hostInstRate                                   196570                       # Simulator instruction rate (inst/s) ((Count/Second))
hostOpRate                                     209916                       # Simulator op (including micro ops) rate (op/s) ((Count/Second))
system.bridge.power_state.pwrStateResidencyTicks::UNDEFINED   3704847500                       # Cumulative time (in ticks) in various power states (Tick)
system.clk_domain.clock                          1000                       # Clock period in ticks (Tick)
system.cpu.numCycles                          7409696                       # Number of cpu cycles simulated (Cycle)
system.cpu.numWorkItemsStarted                      0                       # Number of work items this cpu started (Count)
system.cpu.numWorkItemsCompleted                    0                       # Number of work items this cpu completed (Count)
system.cpu.instsAdded                        10714664                       # Number of instructions added to the IQ (excludes non-spec) (Count)
system.cpu.nonSpecInstsAdded                       33                       # Number of non-speculative instructions added to the IQ (Count)
system.cpu.instsIssued                       10702828                       # Number of instructions issued (Count)
system.cpu.squashedInstsIssued                   1183                       # Number of squashed instructions issued (Count)
system.cpu.squashedInstsExamined                37112                       # Number of squashed instructions iterated over during squash; mainly for profiling (Count)
system.cpu.squashedOperandsExamined             30509                       # Number of squashed operands that are examined and possibly removed from graph (Count)
system.cpu.numIssuedDist::samples             7402523                       # Number of insts issued each cycle (Count)
system.cpu.numIssuedDist::mean               1.445835                       # Number of insts issued each cycle (Count)
system.cpu.numIssuedDist::stdev              2.146350                       # Number of insts issued each cycle (Count)
system.cpu.numIssuedDist::underflows                0      0.00%      0.00% # Number of insts issued each cycle (Count)
system.cpu.numIssuedDist::0                   4197582     56.70%     56.70% # Number of insts issued each cycle (Count)
system.cpu.numIssuedDist::1                    672023      9.08%     65.78% # Number of insts issued each cycle (Count)
system.cpu.numIssuedDist::2                    786145     10.62%     76.40% # Number of insts issued each cycle (Count)
system.cpu.numIssuedDist::3                    484847      6.55%     82.95% # Number of insts issued each cycle (Count)
system.cpu.numIssuedDist::4                    389846      5.27%     88.22% # Number of insts issued each cycle (Count)
system.cpu.numIssuedDist::5                    311304      4.21%     92.42% # Number of insts issued each cycle (Count)
system.cpu.numIssuedDist::6                    229329      3.10%     95.52% # Number of insts issued each cycle (Count)
system.cpu.numIssuedDist::7                    139480      1.88%     97.41% # Number of insts issued each cycle (Count)
system.cpu.numIssuedDist::8                    191967      2.59%    100.00% # Number of insts issued each cycle (Count)
system.cpu.numIssuedDist::overflows                 0      0.00%    100.00% # Number of insts issued each cycle (Count)
system.cpu.numIssuedDist::min_value                 0                       # Number of insts issued each cycle (Count)
system.cpu.numIssuedDist::max_value                 8                       # Number of insts issued each cycle (Count)
system.cpu.numIssuedDist::total               7402523                       # Number of insts issued each cycle (Count)
system.cpu.statFuBusy::No_OpClass                   0      0.00%      0.00% # attempts to use FU when none available (Count)
system.cpu.statFuBusy::IntAlu                    4252      0.06%      0.06% # attempts to use FU when none available (Count)
system.cpu.statFuBusy::IntMult                      0      0.00%      0.06% # attempts to use FU when none available (Count)
system.cpu.statFuBusy::IntDiv                       0      0.00%      0.06% # attempts to use FU when none available (Count)
system.cpu.statFuBusy::FloatAdd                  9310      0.13%      0.20% # attempts to use FU when none available (Count)
system.cpu.statFuBusy::FloatCmp                583545      8.41%      8.60% # attempts to use FU when none available (Count)
system.cpu.statFuBusy::FloatCvt               1710950     24.65%     33.25% # attempts to use FU when none available (Count)
system.cpu.statFuBusy::FloatMult                11181      0.16%     33.41% # attempts to use FU when none available (Count)
system.cpu.statFuBusy::FloatMultAcc                 0      0.00%     33.41% # attempts to use FU when none available (Count)
system.cpu.statFuBusy::FloatDiv               1542587     22.22%     55.64% # attempts to use FU when none available (Count)
system.cpu.statFuBusy::FloatMisc              2424464     34.93%     90.56% # attempts to use FU when none available (Count)
system.cpu.statFuBusy::FloatSqrt                    0      0.00%     90.56% # attempts to use FU when none available (Count)
system.cpu.statFuBusy::SimdAdd                      0      0.00%     90.56% # attempts to use FU when none available (Count)
system.cpu.statFuBusy::SimdAddAcc                   0      0.00%     90.56% # attempts to use FU when none available (Count)
system.cpu.statFuBusy::SimdAlu                      0      0.00%     90.56% # attempts to use FU when none available (Count)
system.cpu.statFuBusy::SimdCmp                      0      0.00%     90.56% # attempts to use FU when none available (Count)
system.cpu.statFuBusy::SimdCvt                      0      0.00%     90.56% # attempts to use FU when none available (Count)
system.cpu.statFuBusy::SimdMisc                     0      0.00%     90.56% # attempts to use FU when none available (Count)
system.cpu.statFuBusy::SimdMult                     0      0.00%     90.56% # attempts to use FU when none available (Count)
system.cpu.statFuBusy::SimdMultAcc                  0      0.00%     90.56% # attempts to use FU when none available (Count)
system.cpu.statFuBusy::SimdShift                    0      0.00%     90.56% # attempts to use FU when none available (Count)
system.cpu.statFuBusy::SimdShiftAcc                 0      0.00%     90.56% # attempts to use FU when none available (Count)
system.cpu.statFuBusy::SimdDiv                      0      0.00%     90.56% # attempts to use FU when none available (Count)
system.cpu.statFuBusy::SimdSqrt                     0      0.00%     90.56% # attempts to use FU when none available (Count)
system.cpu.statFuBusy::SimdFloatAdd                 0      0.00%     90.56% # attempts to use FU when none available (Count)
system.cpu.statFuBusy::SimdFloatAlu                 0      0.00%     90.56% # attempts to use FU when none available (Count)
system.cpu.statFuBusy::SimdFloatCmp                 0      0.00%     90.56% # attempts to use FU when none available (Count)
system.cpu.statFuBusy::SimdFloatCvt                 0      0.00%     90.56% # attempts to use FU when none available (Count)
system.cpu.statFuBusy::SimdFloatDiv                 0      0.00%     90.56% # attempts to use FU when none available (Count)
system.cpu.statFuBusy::SimdFloatMisc                0      0.00%     90.56% # attempts to use FU when none available (Count)
system.cpu.statFuBusy::SimdFloatMult                0      0.00%     90.56% # attempts to use FU when none available (Count)
system.cpu.statFuBusy::SimdFloatMultAcc             0      0.00%     90.56% # attempts to use FU when none available (Count)
system.cpu.statFuBusy::SimdFloatSqrt                0      0.00%     90.56% # attempts to use FU when none available (Count)
system.cpu.statFuBusy::SimdReduceAdd                0      0.00%     90.56% # attempts to use FU when none available (Count)
system.cpu.statFuBusy::SimdReduceAlu                0      0.00%     90.56% # attempts to use FU when none available (Count)
system.cpu.statFuBusy::SimdReduceCmp                0      0.00%     90.56% # attempts to use FU when none available (Count)
system.cpu.statFuBusy::SimdFloatReduceAdd            0      0.00%     90.56% # attempts to use FU when none available (Count)
system.cpu.statFuBusy::SimdFloatReduceCmp            0      0.00%     90.56% # attempts to use FU when none available (Count)
system.cpu.statFuBusy::SimdAes                      0      0.00%     90.56% # attempts to use FU when none available (Count)
system.cpu.statFuBusy::SimdAesMix                   0      0.00%     90.56% # attempts to use FU when none available (Count)
system.cpu.statFuBusy::SimdSha1Hash                 0      0.00%     90.56% # attempts to use FU when none available (Count)
system.cpu.statFuBusy::SimdSha1Hash2                0      0.00%     90.56% # attempts to use FU when none available (Count)
system.cpu.statFuBusy::SimdSha256Hash               0      0.00%     90.56% # attempts to use FU when none available (Count)
system.cpu.statFuBusy::SimdSha256Hash2              0      0.00%     90.56% # attempts to use FU when none available (Count)
system.cpu.statFuBusy::SimdShaSigma2                0      0.00%     90.56% # attempts to use FU when none available (Count)
system.cpu.statFuBusy::SimdShaSigma3                0      0.00%     90.56% # attempts to use FU when none available (Count)
system.cpu.statFuBusy::SimdPredAlu                  0      0.00%     90.56% # attempts to use FU when none available (Count)
system.cpu.statFuBusy::MemRead                  78070      1.12%     91.69% # attempts to use FU when none available (Count)
system.cpu.statFuBusy::MemWrite                  1625      0.02%     91.71% # attempts to use FU when none available (Count)
system.cpu.statFuBusy::FloatMemRead            534183      7.70%     99.41% # attempts to use FU when none available (Count)
system.cpu.statFuBusy::FloatMemWrite            20683      0.30%     99.71% # attempts to use FU when none available (Count)
system.cpu.statFuBusy::IprAccess                    0      0.00%     99.71% # attempts to use FU when none available (Count)
system.cpu.statFuBusy::InstPrefetch                 0      0.00%     99.71% # attempts to use FU when none available (Count)
system.cpu.statFuBusy::FMAMul                   18716      0.27%     99.98% # attempts to use FU when none available (Count)
system.cpu.statFuBusy::FMAAcc                    1703      0.02%    100.00% # attempts to use FU when none available (Count)
system.cpu.statIssuedInstType_0::No_OpClass           32      0.00%      0.00% # Number of instructions issued per FU type, per thread (Count)
system.cpu.statIssuedInstType_0::IntAlu       1596003     14.91%     14.91% # Number of instructions issued per FU type, per thread (Count)
system.cpu.statIssuedInstType_0::IntMult          447      0.00%     14.92% # Number of instructions issued per FU type, per thread (Count)
system.cpu.statIssuedInstType_0::IntDiv             0      0.00%     14.92% # Number of instructions issued per FU type, per thread (Count)
system.cpu.statIssuedInstType_0::FloatAdd      1218255     11.38%     26.30% # Number of instructions issued per FU type, per thread (Count)
system.cpu.statIssuedInstType_0::FloatCmp       405280      3.79%     30.09% # Number of instructions issued per FU type, per thread (Count)
system.cpu.statIssuedInstType_0::FloatCvt       545233      5.09%     35.18% # Number of instructions issued per FU type, per thread (Count)
system.cpu.statIssuedInstType_0::FloatMult      1680053     15.70%     50.88% # Number of instructions issued per FU type, per thread (Count)
system.cpu.statIssuedInstType_0::FloatMultAcc            0      0.00%     50.88% # Number of instructions issued per FU type, per thread (Count)
system.cpu.statIssuedInstType_0::FloatDiv       267798      2.50%     53.38% # Number of instructions issued per FU type, per thread (Count)
system.cpu.statIssuedInstType_0::FloatMisc       802959      7.50%     60.88% # Number of instructions issued per FU type, per thread (Count)
system.cpu.statIssuedInstType_0::FloatSqrt            0      0.00%     60.88% # Number of instructions issued per FU type, per thread (Count)
system.cpu.statIssuedInstType_0::SimdAdd            0      0.00%     60.88% # Number of instructions issued per FU type, per thread (Count)
system.cpu.statIssuedInstType_0::SimdAddAcc            0      0.00%     60.88% # Number of instructions issued per FU type, per thread (Count)
system.cpu.statIssuedInstType_0::SimdAlu            0      0.00%     60.88% # Number of instructions issued per FU type, per thread (Count)
system.cpu.statIssuedInstType_0::SimdCmp            0      0.00%     60.88% # Number of instructions issued per FU type, per thread (Count)
system.cpu.statIssuedInstType_0::SimdCvt            0      0.00%     60.88% # Number of instructions issued per FU type, per thread (Count)
system.cpu.statIssuedInstType_0::SimdMisc            0      0.00%     60.88% # Number of instructions issued per FU type, per thread (Count)
system.cpu.statIssuedInstType_0::SimdMult            0      0.00%     60.88% # Number of instructions issued per FU type, per thread (Count)
system.cpu.statIssuedInstType_0::SimdMultAcc            0      0.00%     60.88% # Number of instructions issued per FU type, per thread (Count)
system.cpu.statIssuedInstType_0::SimdShift            0      0.00%     60.88% # Number of instructions issued per FU type, per thread (Count)
system.cpu.statIssuedInstType_0::SimdShiftAcc            0      0.00%     60.88% # Number of instructions issued per FU type, per thread (Count)
system.cpu.statIssuedInstType_0::SimdDiv            0      0.00%     60.88% # Number of instructions issued per FU type, per thread (Count)
system.cpu.statIssuedInstType_0::SimdSqrt            0      0.00%     60.88% # Number of instructions issued per FU type, per thread (Count)
system.cpu.statIssuedInstType_0::SimdFloatAdd            0      0.00%     60.88% # Number of instructions issued per FU type, per thread (Count)
system.cpu.statIssuedInstType_0::SimdFloatAlu            0      0.00%     60.88% # Number of instructions issued per FU type, per thread (Count)
system.cpu.statIssuedInstType_0::SimdFloatCmp            0      0.00%     60.88% # Number of instructions issued per FU type, per thread (Count)
system.cpu.statIssuedInstType_0::SimdFloatCvt            0      0.00%     60.88% # Number of instructions issued per FU type, per thread (Count)
system.cpu.statIssuedInstType_0::SimdFloatDiv            0      0.00%     60.88% # Number of instructions issued per FU type, per thread (Count)
system.cpu.statIssuedInstType_0::SimdFloatMisc            0      0.00%     60.88% # Number of instructions issued per FU type, per thread (Count)
system.cpu.statIssuedInstType_0::SimdFloatMult            0      0.00%     60.88% # Number of instructions issued per FU type, per thread (Count)
system.cpu.statIssuedInstType_0::SimdFloatMultAcc            0      0.00%     60.88% # Number of instructions issued per FU type, per thread (Count)
system.cpu.statIssuedInstType_0::SimdFloatSqrt            0      0.00%     60.88% # Number of instructions issued per FU type, per thread (Count)
system.cpu.statIssuedInstType_0::SimdReduceAdd            0      0.00%     60.88% # Number of instructions issued per FU type, per thread (Count)
system.cpu.statIssuedInstType_0::SimdReduceAlu            0      0.00%     60.88% # Number of instructions issued per FU type, per thread (Count)
system.cpu.statIssuedInstType_0::SimdReduceCmp            0      0.00%     60.88% # Number of instructions issued per FU type, per thread (Count)
system.cpu.statIssuedInstType_0::SimdFloatReduceAdd            0      0.00%     60.88% # Number of instructions issued per FU type, per thread (Count)
system.cpu.statIssuedInstType_0::SimdFloatReduceCmp            0      0.00%     60.88% # Number of instructions issued per FU type, per thread (Count)
system.cpu.statIssuedInstType_0::SimdAes            0      0.00%     60.88% # Number of instructions issued per FU type, per thread (Count)
system.cpu.statIssuedInstType_0::SimdAesMix            0      0.00%     60.88% # Number of instructions issued per FU type, per thread (Count)
system.cpu.statIssuedInstType_0::SimdSha1Hash            0      0.00%     60.88% # Number of instructions issued per FU type, per thread (Count)
system.cpu.statIssuedInstType_0::SimdSha1Hash2            0      0.00%     60.88% # Number of instructions issued per FU type, per thread (Count)
system.cpu.statIssuedInstType_0::SimdSha256Hash            0      0.00%     60.88% # Number of instructions issued per FU type, per thread (Count)
system.cpu.statIssuedInstType_0::SimdSha256Hash2            0      0.00%     60.88% # Number of instructions issued per FU type, per thread (Count)
system.cpu.statIssuedInstType_0::SimdShaSigma2            0      0.00%     60.88% # Number of instructions issued per FU type, per thread (Count)
system.cpu.statIssuedInstType_0::SimdShaSigma3            0      0.00%     60.88% # Number of instructions issued per FU type, per thread (Count)
system.cpu.statIssuedInstType_0::SimdPredAlu            0      0.00%     60.88% # Number of instructions issued per FU type, per thread (Count)
system.cpu.statIssuedInstType_0::MemRead       230881      2.16%     63.04% # Number of instructions issued per FU type, per thread (Count)
system.cpu.statIssuedInstType_0::MemWrite        47157      0.44%     63.48% # Number of instructions issued per FU type, per thread (Count)
system.cpu.statIssuedInstType_0::FloatMemRead      1811758     16.93%     80.41% # Number of instructions issued per FU type, per thread (Count)
system.cpu.statIssuedInstType_0::FloatMemWrite       738973      6.90%     87.31% # Number of instructions issued per FU type, per thread (Count)
system.cpu.statIssuedInstType_0::IprAccess            0      0.00%     87.31% # Number of instructions issued per FU type, per thread (Count)
system.cpu.statIssuedInstType_0::InstPrefetch            0      0.00%     87.31% # Number of instructions issued per FU type, per thread (Count)
system.cpu.statIssuedInstType_0::FMAMul        679008      6.34%     93.66% # Number of instructions issued per FU type, per thread (Count)
system.cpu.statIssuedInstType_0::FMAAcc        678991      6.34%    100.00% # Number of instructions issued per FU type, per thread (Count)
system.cpu.statIssuedInstType_0::total       10702828                       # Number of instructions issued per FU type, per thread (Count)
system.cpu.issueRate                         1.444436                       # Inst issue rate ((Count/Cycle))
system.cpu.fuBusy                             6941269                       # FU busy when requested (Count)
system.cpu.fuBusyRate                        0.648545                       # FU busy rate (busy events/executed inst) ((Count/Count))
system.cpu.intInstQueueReads                 11235942                       # Number of integer instruction queue reads (Count)
system.cpu.intInstQueueWrites                 1916337                       # Number of integer instruction queue writes (Count)
system.cpu.intInstQueueWakeupAccesses         1868689                       # Number of integer instruction queue wakeup accesses (Count)
system.cpu.fpInstQueueReads                  24514685                       # Number of floating instruction queue reads (Count)
system.cpu.fpInstQueueWrites                  8836676                       # Number of floating instruction queue writes (Count)
system.cpu.fpInstQueueWakeupAccesses          8824032                       # Number of floating instruction queue wakeup accesses (Count)
system.cpu.vecInstQueueReads                        0                       # Number of vector instruction queue reads (Count)
system.cpu.vecInstQueueWrites                       0                       # Number of vector instruction queue writes (Count)
system.cpu.vecInstQueueWakeupAccesses               0                       # Number of vector instruction queue wakeup accesses (Count)
system.cpu.intAluAccesses                     1958435                       # Number of integer alu accesses (Count)
system.cpu.fpAluAccesses                     15685630                       # Number of floating point alu accesses (Count)
system.cpu.vecAluAccesses                           0                       # Number of vector alu accesses (Count)
system.cpu.numInsts                          10695277                       # Number of executed instructions (Count)
system.cpu.numLoadInsts                       2038384                       # Number of load instructions executed (Count)
system.cpu.numSquashedInsts                      4070                       # Number of squashed instructions skipped in execute (Count)
system.cpu.numSwp                                   0                       # Number of swp insts executed (Count)
system.cpu.numNop                                1540                       # Number of nop insts executed (Count)
system.cpu.numRefs                            2823030                       # Number of memory reference insts executed (Count)
system.cpu.numBranches                          95313                       # Number of branches executed (Count)
system.cpu.numStoreInsts                       784646                       # Number of stores executed (Count)
system.cpu.numRate                           1.443416                       # Inst execution rate ((Count/Cycle))
system.cpu.timesIdled                              98                       # Number of times that the entire CPU went into an idle state and unscheduled itself (Count)
system.cpu.idleCycles                            7173                       # Total number of cycles that the CPU has spent unscheduled due to idling (Cycle)
system.cpu.committedInsts                    10000004                       # Number of Instructions Simulated (Count)
system.cpu.committedOps                      10678972                       # Number of Ops (including micro ops) Simulated (Count)
system.cpu.cpi                               0.740969                       # CPI: Cycles Per Instruction ((Cycle/Count))
system.cpu.totalCpi                          0.740969                       # CPI: Total CPI of All Threads ((Cycle/Count))
system.cpu.ipc                               1.349584                       # IPC: Instructions Per Cycle ((Count/Cycle))
system.cpu.totalIpc                          1.349584                       # IPC: Total IPC of All Threads ((Count/Cycle))
system.cpu.intRegfileReads                    6376394                       # Number of integer regfile reads (Count)
system.cpu.intRegfileWrites                   1956604                       # Number of integer regfile writes (Count)
system.cpu.fpRegfileReads                    12288972                       # Number of floating regfile reads (Count)
system.cpu.fpRegfileWrites                    7178446                       # Number of floating regfile writes (Count)
system.cpu.miscRegfileReads                 104679196                       # number of misc regfile reads (Count)
system.cpu.miscRegfileWrites                  7405589                       # number of misc regfile writes (Count)
system.cpu.lastCommitTick                  3704847500                       # The last tick to commit an instruction (Count)
system.cpu.MemDepUnit__0.insertedLoads        2042955                       # Number of loads inserted to the mem dependence unit. (Count)
system.cpu.MemDepUnit__0.insertedStores        786327                       # Number of stores inserted to the mem dependence unit. (Count)
system.cpu.MemDepUnit__0.conflictingLoads        81186                       # Number of conflicting loads. (Count)
system.cpu.MemDepUnit__0.conflictingStores        35413                       # Number of conflicting stores. (Count)
system.cpu.MemDepUnit__1.insertedLoads              0                       # Number of loads inserted to the mem dependence unit. (Count)
system.cpu.MemDepUnit__1.insertedStores             0                       # Number of stores inserted to the mem dependence unit. (Count)
system.cpu.MemDepUnit__1.conflictingLoads            0                       # Number of conflicting loads. (Count)
system.cpu.MemDepUnit__1.conflictingStores            0                       # Number of conflicting stores. (Count)
system.cpu.MemDepUnit__2.insertedLoads              0                       # Number of loads inserted to the mem dependence unit. (Count)
system.cpu.MemDepUnit__2.insertedStores             0                       # Number of stores inserted to the mem dependence unit. (Count)
system.cpu.MemDepUnit__2.conflictingLoads            0                       # Number of conflicting loads. (Count)
system.cpu.MemDepUnit__2.conflictingStores            0                       # Number of conflicting stores. (Count)
system.cpu.MemDepUnit__3.insertedLoads              0                       # Number of loads inserted to the mem dependence unit. (Count)
system.cpu.MemDepUnit__3.insertedStores             0                       # Number of stores inserted to the mem dependence unit. (Count)
system.cpu.MemDepUnit__3.conflictingLoads            0                       # Number of conflicting loads. (Count)
system.cpu.MemDepUnit__3.conflictingStores            0                       # Number of conflicting stores. (Count)
system.cpu.branchPred.lookups                   98538                       # Number of BP lookups (Count)
system.cpu.branchPred.condPredicted             98295                       # Number of conditional branches predicted (Count)
system.cpu.branchPred.condIncorrect               283                       # Number of conditional branches incorrect (Count)
system.cpu.branchPred.BTBLookups                76202                       # Number of BTB lookups (Count)
system.cpu.branchPred.BTBHits                   76188                       # Number of BTB hits (Count)
system.cpu.branchPred.BTBHitRatio            0.999816                       # BTB Hit Ratio (Ratio)
system.cpu.branchPred.RASUsed                      15                       # Number of times the RAS was used to get a target. (Count)
system.cpu.branchPred.RASIncorrect                  1                       # Number of incorrect RAS predictions. (Count)
system.cpu.branchPred.indirectLookups               0                       # Number of indirect predictor lookups. (Count)
system.cpu.branchPred.indirectHits                  0                       # Number of indirect target hits. (Count)
system.cpu.branchPred.indirectMisses                0                       # Number of indirect misses. (Count)
system.cpu.branchPred.indirectMispredicted            0                       # Number of mispredicted indirect branches. (Count)
system.cpu.branchPred.loop_predictor.correct        85706                       # Number of times the loop predictor is the provider and the prediction is correct (Count)
system.cpu.branchPred.loop_predictor.wrong         9079                       # Number of times the loop predictor is the provider and the prediction is wrong (Count)
system.cpu.branchPred.tage.longestMatchProviderCorrect        41545                       # Number of times TAGE Longest Match is the provider and the prediction is correct (Count)
system.cpu.branchPred.tage.altMatchProviderCorrect          161                       # Number of times TAGE Alt Match is the provider and the prediction is correct (Count)
system.cpu.branchPred.tage.bimodalAltMatchProviderCorrect          172                       # Number of times TAGE Alt Match is the bimodal and it is the provider and the prediction is correct (Count)
system.cpu.branchPred.tage.bimodalProviderCorrect        52644                       # Number of times there are no hits on the TAGE tables and the bimodal prediction is correct (Count)
system.cpu.branchPred.tage.longestMatchProviderWrong          128                       # Number of times TAGE Longest Match is the provider and the prediction is wrong (Count)
system.cpu.branchPred.tage.altMatchProviderWrong           23                       # Number of times TAGE Alt Match is the provider and the prediction is wrong (Count)
system.cpu.branchPred.tage.bimodalAltMatchProviderWrong           29                       # Number of times TAGE Alt Match is the bimodal and it is the provider and the prediction is wrong (Count)
system.cpu.branchPred.tage.bimodalProviderWrong           83                       # Number of times there are no hits on the TAGE tables and the bimodal prediction is wrong (Count)
system.cpu.branchPred.tage.altMatchProviderWouldHaveHit           22                       # Number of times TAGE Longest Match is the provider, the prediction is wrong and Alt Match prediction was correct (Count)
system.cpu.branchPred.tage.longestMatchProviderWouldHaveHit           37                       # Number of times TAGE Alt Match is the provider, the prediction is wrong and Longest Match prediction was correct (Count)
system.cpu.branchPred.tage.longestMatchProvider::0            0                       # TAGE provider for longest match (Count)
system.cpu.branchPred.tage.longestMatchProvider::1        15388                       # TAGE provider for longest match (Count)
system.cpu.branchPred.tage.longestMatchProvider::2         8354                       # TAGE provider for longest match (Count)
system.cpu.branchPred.tage.longestMatchProvider::3        12289                       # TAGE provider for longest match (Count)
system.cpu.branchPred.tage.longestMatchProvider::4          674                       # TAGE provider for longest match (Count)
system.cpu.branchPred.tage.longestMatchProvider::5         2149                       # TAGE provider for longest match (Count)
system.cpu.branchPred.tage.longestMatchProvider::6          772                       # TAGE provider for longest match (Count)
system.cpu.branchPred.tage.longestMatchProvider::7          635                       # TAGE provider for longest match (Count)
system.cpu.branchPred.tage.longestMatchProvider::8          522                       # TAGE provider for longest match (Count)
system.cpu.branchPred.tage.longestMatchProvider::9          474                       # TAGE provider for longest match (Count)
system.cpu.branchPred.tage.longestMatchProvider::10          326                       # TAGE provider for longest match (Count)
system.cpu.branchPred.tage.longestMatchProvider::11          222                       # TAGE provider for longest match (Count)
system.cpu.branchPred.tage.longestMatchProvider::12           52                       # TAGE provider for longest match (Count)
system.cpu.branchPred.tage.altMatchProvider::0        28327                       # TAGE provider for alt match (Count)
system.cpu.branchPred.tage.altMatchProvider::1         4133                       # TAGE provider for alt match (Count)
system.cpu.branchPred.tage.altMatchProvider::2         3716                       # TAGE provider for alt match (Count)
system.cpu.branchPred.tage.altMatchProvider::3          670                       # TAGE provider for alt match (Count)
system.cpu.branchPred.tage.altMatchProvider::4         2061                       # TAGE provider for alt match (Count)
system.cpu.branchPred.tage.altMatchProvider::5         1140                       # TAGE provider for alt match (Count)
system.cpu.branchPred.tage.altMatchProvider::6          294                       # TAGE provider for alt match (Count)
system.cpu.branchPred.tage.altMatchProvider::7          611                       # TAGE provider for alt match (Count)
system.cpu.branchPred.tage.altMatchProvider::8          484                       # TAGE provider for alt match (Count)
system.cpu.branchPred.tage.altMatchProvider::9          251                       # TAGE provider for alt match (Count)
system.cpu.branchPred.tage.altMatchProvider::10          145                       # TAGE provider for alt match (Count)
system.cpu.branchPred.tage.altMatchProvider::11           25                       # TAGE provider for alt match (Count)
system.cpu.branchPred.tage.altMatchProvider::12            0                       # TAGE provider for alt match (Count)
system.cpu.commit.commitSquashedInsts           37895                       # The number of squashed insts skipped by commit (Count)
system.cpu.commit.commitNonSpecStalls              33                       # The number of times commit has been forced to stall to communicate backwards (Count)
system.cpu.commit.branchMispredicts               274                       # The number of times a branch was mispredicted (Count)
system.cpu.commit.numCommittedDist::samples      7395521                       # Number of insts commited each cycle (Count)
system.cpu.commit.numCommittedDist::mean     1.443978                       # Number of insts commited each cycle (Count)
system.cpu.commit.numCommittedDist::stdev     2.570140                       # Number of insts commited each cycle (Count)
system.cpu.commit.numCommittedDist::underflows            0      0.00%      0.00% # Number of insts commited each cycle (Count)
system.cpu.commit.numCommittedDist::0         5408129     73.13%     73.13% # Number of insts commited each cycle (Count)
system.cpu.commit.numCommittedDist::1          124561      1.68%     74.81% # Number of insts commited each cycle (Count)
system.cpu.commit.numCommittedDist::2          125754      1.70%     76.51% # Number of insts commited each cycle (Count)
system.cpu.commit.numCommittedDist::3          123730      1.67%     78.18% # Number of insts commited each cycle (Count)
system.cpu.commit.numCommittedDist::4          103382      1.40%     79.58% # Number of insts commited each cycle (Count)
system.cpu.commit.numCommittedDist::5           62337      0.84%     80.43% # Number of insts commited each cycle (Count)
system.cpu.commit.numCommittedDist::6         1112352     15.04%     95.47% # Number of insts commited each cycle (Count)
system.cpu.commit.numCommittedDist::overflows       335276      4.53%    100.00% # Number of insts commited each cycle (Count)
system.cpu.commit.numCommittedDist::min_value            0                       # Number of insts commited each cycle (Count)
system.cpu.commit.numCommittedDist::max_value            9                       # Number of insts commited each cycle (Count)
system.cpu.commit.numCommittedDist::total      7395521                       # Number of insts commited each cycle (Count)
system.cpu.commit.instsCommitted             10000004                       # Number of instructions committed (Count)
system.cpu.commit.opsCommitted               10678972                       # Number of ops (including micro ops) committed (Count)
system.cpu.commit.memRefs                     2816679                       # Number of memory references committed (Count)
system.cpu.commit.loads                       2032157                       # Number of loads committed (Count)
system.cpu.commit.amos                              0                       # Number of atomic instructions committed (Count)
system.cpu.commit.membars                           0                       # Number of memory barriers committed (Count)
system.cpu.commit.branches                      94939                       # Number of branches committed (Count)
system.cpu.commit.vectorInstructions                0                       # Number of committed Vector instructions. (Count)
system.cpu.commit.floating                    8822390                       # Number of committed floating point instructions. (Count)
system.cpu.commit.integer                     4947206                       # Number of committed integer instructions. (Count)
system.cpu.commit.functionCalls                     1                       # Number of function calls committed. (Count)
system.cpu.commit.committedInstType_0::No_OpClass           32      0.00%      0.00% # Class of committed instruction (Count)
system.cpu.commit.committedInstType_0::IntAlu      1585055     14.84%     14.84% # Class of committed instruction (Count)
system.cpu.commit.committedInstType_0::IntMult          424      0.00%     14.85% # Class of committed instruction (Count)
system.cpu.commit.committedInstType_0::IntDiv            0      0.00%     14.85% # Class of committed instruction (Count)
system.cpu.commit.committedInstType_0::FloatAdd      1218096     11.41%     26.25% # Class of committed instruction (Count)
system.cpu.commit.committedInstType_0::FloatCmp       405272      3.80%     30.05% # Class of committed instruction (Count)
system.cpu.commit.committedInstType_0::FloatCvt       545017      5.10%     35.15% # Class of committed instruction (Count)
system.cpu.commit.committedInstType_0::FloatMult      1679931     15.73%     50.88% # Class of committed instruction (Count)
system.cpu.commit.committedInstType_0::FloatMultAcc            0      0.00%     50.88% # Class of committed instruction (Count)
system.cpu.commit.committedInstType_0::FloatDiv       267796      2.51%     53.39% # Class of committed instruction (Count)
system.cpu.commit.committedInstType_0::FloatMisc       802734      7.52%     60.91% # Class of committed instruction (Count)
system.cpu.commit.committedInstType_0::FloatSqrt            0      0.00%     60.91% # Class of committed instruction (Count)
system.cpu.commit.committedInstType_0::SimdAdd            0      0.00%     60.91% # Class of committed instruction (Count)
system.cpu.commit.committedInstType_0::SimdAddAcc            0      0.00%     60.91% # Class of committed instruction (Count)
system.cpu.commit.committedInstType_0::SimdAlu            0      0.00%     60.91% # Class of committed instruction (Count)
system.cpu.commit.committedInstType_0::SimdCmp            0      0.00%     60.91% # Class of committed instruction (Count)
system.cpu.commit.committedInstType_0::SimdCvt            0      0.00%     60.91% # Class of committed instruction (Count)
system.cpu.commit.committedInstType_0::SimdMisc            0      0.00%     60.91% # Class of committed instruction (Count)
system.cpu.commit.committedInstType_0::SimdMult            0      0.00%     60.91% # Class of committed instruction (Count)
system.cpu.commit.committedInstType_0::SimdMultAcc            0      0.00%     60.91% # Class of committed instruction (Count)
system.cpu.commit.committedInstType_0::SimdShift            0      0.00%     60.91% # Class of committed instruction (Count)
system.cpu.commit.committedInstType_0::SimdShiftAcc            0      0.00%     60.91% # Class of committed instruction (Count)
system.cpu.commit.committedInstType_0::SimdDiv            0      0.00%     60.91% # Class of committed instruction (Count)
system.cpu.commit.committedInstType_0::SimdSqrt            0      0.00%     60.91% # Class of committed instruction (Count)
system.cpu.commit.committedInstType_0::SimdFloatAdd            0      0.00%     60.91% # Class of committed instruction (Count)
system.cpu.commit.committedInstType_0::SimdFloatAlu            0      0.00%     60.91% # Class of committed instruction (Count)
system.cpu.commit.committedInstType_0::SimdFloatCmp            0      0.00%     60.91% # Class of committed instruction (Count)
system.cpu.commit.committedInstType_0::SimdFloatCvt            0      0.00%     60.91% # Class of committed instruction (Count)
system.cpu.commit.committedInstType_0::SimdFloatDiv            0      0.00%     60.91% # Class of committed instruction (Count)
system.cpu.commit.committedInstType_0::SimdFloatMisc            0      0.00%     60.91% # Class of committed instruction (Count)
system.cpu.commit.committedInstType_0::SimdFloatMult            0      0.00%     60.91% # Class of committed instruction (Count)
system.cpu.commit.committedInstType_0::SimdFloatMultAcc            0      0.00%     60.91% # Class of committed instruction (Count)
system.cpu.commit.committedInstType_0::SimdFloatSqrt            0      0.00%     60.91% # Class of committed instruction (Count)
system.cpu.commit.committedInstType_0::SimdReduceAdd            0      0.00%     60.91% # Class of committed instruction (Count)
system.cpu.commit.committedInstType_0::SimdReduceAlu            0      0.00%     60.91% # Class of committed instruction (Count)
system.cpu.commit.committedInstType_0::SimdReduceCmp            0      0.00%     60.91% # Class of committed instruction (Count)
system.cpu.commit.committedInstType_0::SimdFloatReduceAdd            0      0.00%     60.91% # Class of committed instruction (Count)
system.cpu.commit.committedInstType_0::SimdFloatReduceCmp            0      0.00%     60.91% # Class of committed instruction (Count)
system.cpu.commit.committedInstType_0::SimdAes            0      0.00%     60.91% # Class of committed instruction (Count)
system.cpu.commit.committedInstType_0::SimdAesMix            0      0.00%     60.91% # Class of committed instruction (Count)
system.cpu.commit.committedInstType_0::SimdSha1Hash            0      0.00%     60.91% # Class of committed instruction (Count)
system.cpu.commit.committedInstType_0::SimdSha1Hash2            0      0.00%     60.91% # Class of committed instruction (Count)
system.cpu.commit.committedInstType_0::SimdSha256Hash            0      0.00%     60.91% # Class of committed instruction (Count)
system.cpu.commit.committedInstType_0::SimdSha256Hash2            0      0.00%     60.91% # Class of committed instruction (Count)
system.cpu.commit.committedInstType_0::SimdShaSigma2            0      0.00%     60.91% # Class of committed instruction (Count)
system.cpu.commit.committedInstType_0::SimdShaSigma3            0      0.00%     60.91% # Class of committed instruction (Count)
system.cpu.commit.committedInstType_0::SimdPredAlu            0      0.00%     60.91% # Class of committed instruction (Count)
system.cpu.commit.committedInstType_0::MemRead       224409      2.10%     63.01% # Class of committed instruction (Count)
system.cpu.commit.committedInstType_0::MemWrite        46662      0.44%     63.45% # Class of committed instruction (Count)
system.cpu.commit.committedInstType_0::FloatMemRead      1807748     16.93%     80.37% # Class of committed instruction (Count)
system.cpu.commit.committedInstType_0::FloatMemWrite       737860      6.91%     87.28% # Class of committed instruction (Count)
system.cpu.commit.committedInstType_0::IprAccess            0      0.00%     87.28% # Class of committed instruction (Count)
system.cpu.commit.committedInstType_0::InstPrefetch            0      0.00%     87.28% # Class of committed instruction (Count)
system.cpu.commit.committedInstType_0::FMAMul       678968      6.36%     93.64% # Class of committed instruction (Count)
system.cpu.commit.committedInstType_0::FMAAcc       678968      6.36%    100.00% # Class of committed instruction (Count)
system.cpu.commit.committedInstType_0::total     10678972                       # Class of committed instruction (Count)
system.cpu.commit.commitEligibleSamples       1112352                       # number cycles where commit BW limit reached (Cycle)
system.cpu.dcache.demandHits::cpu.data        2608261                       # number of demand (read+write) hits (Count)
system.cpu.dcache.demandHits::total           2608261                       # number of demand (read+write) hits (Count)
system.cpu.dcache.overallHits::cpu.data       2608261                       # number of overall hits (Count)
system.cpu.dcache.overallHits::total          2608261                       # number of overall hits (Count)
system.cpu.dcache.demandMisses::cpu.data       188091                       # number of demand (read+write) misses (Count)
system.cpu.dcache.demandMisses::total          188091                       # number of demand (read+write) misses (Count)
system.cpu.dcache.overallMisses::cpu.data       188091                       # number of overall misses (Count)
system.cpu.dcache.overallMisses::total         188091                       # number of overall misses (Count)
system.cpu.dcache.demandMissLatency::cpu.data  16173136500                       # number of demand (read+write) miss ticks (Tick)
system.cpu.dcache.demandMissLatency::total  16173136500                       # number of demand (read+write) miss ticks (Tick)
system.cpu.dcache.overallMissLatency::cpu.data  16173136500                       # number of overall miss ticks (Tick)
system.cpu.dcache.overallMissLatency::total  16173136500                       # number of overall miss ticks (Tick)
system.cpu.dcache.demandAccesses::cpu.data      2796352                       # number of demand (read+write) accesses (Count)
system.cpu.dcache.demandAccesses::total       2796352                       # number of demand (read+write) accesses (Count)
system.cpu.dcache.overallAccesses::cpu.data      2796352                       # number of overall (read+write) accesses (Count)
system.cpu.dcache.overallAccesses::total      2796352                       # number of overall (read+write) accesses (Count)
system.cpu.dcache.demandMissRate::cpu.data     0.067263                       # miss rate for demand accesses (Ratio)
system.cpu.dcache.demandMissRate::total      0.067263                       # miss rate for demand accesses (Ratio)
system.cpu.dcache.overallMissRate::cpu.data     0.067263                       # miss rate for overall accesses (Ratio)
system.cpu.dcache.overallMissRate::total     0.067263                       # miss rate for overall accesses (Ratio)
system.cpu.dcache.demandAvgMissLatency::cpu.data 85985.701070                       # average overall miss latency in ticks ((Tick/Count))
system.cpu.dcache.demandAvgMissLatency::total 85985.701070                       # average overall miss latency in ticks ((Tick/Count))
system.cpu.dcache.overallAvgMissLatency::cpu.data 85985.701070                       # average overall miss latency ((Tick/Count))
system.cpu.dcache.overallAvgMissLatency::total 85985.701070                       # average overall miss latency ((Tick/Count))
system.cpu.dcache.blockedCycles::no_mshrs            0                       # number of cycles access was blocked (Cycle)
system.cpu.dcache.blockedCycles::no_targets           14                       # number of cycles access was blocked (Cycle)
system.cpu.dcache.blockedCauses::no_mshrs            0                       # number of times access was blocked (Count)
system.cpu.dcache.blockedCauses::no_targets            1                       # number of times access was blocked (Count)
system.cpu.dcache.avgBlocked::no_mshrs            nan                       # average number of cycles each access was blocked ((Cycle/Count))
system.cpu.dcache.avgBlocked::no_targets           14                       # average number of cycles each access was blocked ((Cycle/Count))
system.cpu.dcache.writebacks::writebacks        77311                       # number of writebacks (Count)
system.cpu.dcache.writebacks::total             77311                       # number of writebacks (Count)
system.cpu.dcache.demandMshrHits::cpu.data       108732                       # number of demand (read+write) MSHR hits (Count)
system.cpu.dcache.demandMshrHits::total        108732                       # number of demand (read+write) MSHR hits (Count)
system.cpu.dcache.overallMshrHits::cpu.data       108732                       # number of overall MSHR hits (Count)
system.cpu.dcache.overallMshrHits::total       108732                       # number of overall MSHR hits (Count)
system.cpu.dcache.demandMshrMisses::cpu.data        79359                       # number of demand (read+write) MSHR misses (Count)
system.cpu.dcache.demandMshrMisses::total        79359                       # number of demand (read+write) MSHR misses (Count)
system.cpu.dcache.overallMshrMisses::cpu.data        79359                       # number of overall MSHR misses (Count)
system.cpu.dcache.overallMshrMisses::total        79359                       # number of overall MSHR misses (Count)
system.cpu.dcache.overallMshrUncacheable::cpu.data            2                       # number of overall MSHR uncacheable misses (Count)
system.cpu.dcache.overallMshrUncacheable::total            2                       # number of overall MSHR uncacheable misses (Count)
system.cpu.dcache.demandMshrMissLatency::cpu.data   7283791500                       # number of demand (read+write) MSHR miss ticks (Tick)
system.cpu.dcache.demandMshrMissLatency::total   7283791500                       # number of demand (read+write) MSHR miss ticks (Tick)
system.cpu.dcache.overallMshrMissLatency::cpu.data   7283791500                       # number of overall MSHR miss ticks (Tick)
system.cpu.dcache.overallMshrMissLatency::total   7283791500                       # number of overall MSHR miss ticks (Tick)
system.cpu.dcache.demandMshrMissRate::cpu.data     0.028379                       # mshr miss ratio for demand accesses (Ratio)
system.cpu.dcache.demandMshrMissRate::total     0.028379                       # mshr miss ratio for demand accesses (Ratio)
system.cpu.dcache.overallMshrMissRate::cpu.data     0.028379                       # mshr miss ratio for overall accesses (Ratio)
system.cpu.dcache.overallMshrMissRate::total     0.028379                       # mshr miss ratio for overall accesses (Ratio)
system.cpu.dcache.demandAvgMshrMissLatency::cpu.data 91782.803463                       # average overall mshr miss latency ((Tick/Count))
system.cpu.dcache.demandAvgMshrMissLatency::total 91782.803463                       # average overall mshr miss latency ((Tick/Count))
system.cpu.dcache.overallAvgMshrMissLatency::cpu.data 91782.803463                       # average overall mshr miss latency ((Tick/Count))
system.cpu.dcache.overallAvgMshrMissLatency::total 91782.803463                       # average overall mshr miss latency ((Tick/Count))
system.cpu.dcache.replacements                  77311                       # number of replacements (Count)
system.cpu.dcache.ReadReq.hits::cpu.data      1886331                       # number of ReadReq hits (Count)
system.cpu.dcache.ReadReq.hits::total         1886331                       # number of ReadReq hits (Count)
system.cpu.dcache.ReadReq.misses::cpu.data       125501                       # number of ReadReq misses (Count)
system.cpu.dcache.ReadReq.misses::total        125501                       # number of ReadReq misses (Count)
system.cpu.dcache.ReadReq.missLatency::cpu.data  10285477000                       # number of ReadReq miss ticks (Tick)
system.cpu.dcache.ReadReq.missLatency::total  10285477000                       # number of ReadReq miss ticks (Tick)
system.cpu.dcache.ReadReq.missLatencyDist::samples       125501                       # number of ReadReq miss ticks histogram (Tick)
system.cpu.dcache.ReadReq.missLatencyDist::mean   163.910678                       # number of ReadReq miss ticks histogram (Tick)
system.cpu.dcache.ReadReq.missLatencyDist::stdev    92.603952                       # number of ReadReq miss ticks histogram (Tick)
system.cpu.dcache.ReadReq.missLatencyDist::0-9          754      0.60%      0.60% # number of ReadReq miss ticks histogram (Tick)
system.cpu.dcache.ReadReq.missLatencyDist::10-19          867      0.69%      1.29% # number of ReadReq miss ticks histogram (Tick)
system.cpu.dcache.ReadReq.missLatencyDist::20-29         2836      2.26%      3.55% # number of ReadReq miss ticks histogram (Tick)
system.cpu.dcache.ReadReq.missLatencyDist::30-39         4307      3.43%      6.98% # number of ReadReq miss ticks histogram (Tick)
system.cpu.dcache.ReadReq.missLatencyDist::40-49          904      0.72%      7.70% # number of ReadReq miss ticks histogram (Tick)
system.cpu.dcache.ReadReq.missLatencyDist::50-59         1422      1.13%      8.84% # number of ReadReq miss ticks histogram (Tick)
system.cpu.dcache.ReadReq.missLatencyDist::60-69         2070      1.65%     10.49% # number of ReadReq miss ticks histogram (Tick)
system.cpu.dcache.ReadReq.missLatencyDist::70-79          708      0.56%     11.05% # number of ReadReq miss ticks histogram (Tick)
system.cpu.dcache.ReadReq.missLatencyDist::80-89         1280      1.02%     12.07% # number of ReadReq miss ticks histogram (Tick)
system.cpu.dcache.ReadReq.missLatencyDist::90-99         1857      1.48%     13.55% # number of ReadReq miss ticks histogram (Tick)
system.cpu.dcache.ReadReq.missLatencyDist::100-109         1391      1.11%     14.66% # number of ReadReq miss ticks histogram (Tick)
system.cpu.dcache.ReadReq.missLatencyDist::110-119         4231      3.37%     18.03% # number of ReadReq miss ticks histogram (Tick)
system.cpu.dcache.ReadReq.missLatencyDist::120-129         8907      7.10%     25.13% # number of ReadReq miss ticks histogram (Tick)
system.cpu.dcache.ReadReq.missLatencyDist::130-139         3257      2.60%     27.72% # number of ReadReq miss ticks histogram (Tick)
system.cpu.dcache.ReadReq.missLatencyDist::140-149        12365      9.85%     37.57% # number of ReadReq miss ticks histogram (Tick)
system.cpu.dcache.ReadReq.missLatencyDist::150-159         3719      2.96%     40.54% # number of ReadReq miss ticks histogram (Tick)
system.cpu.dcache.ReadReq.missLatencyDist::160-169         7725      6.16%     46.69% # number of ReadReq miss ticks histogram (Tick)
system.cpu.dcache.ReadReq.missLatencyDist::170-179        39410     31.40%     78.09% # number of ReadReq miss ticks histogram (Tick)
system.cpu.dcache.ReadReq.missLatencyDist::180-189         8552      6.81%     84.91% # number of ReadReq miss ticks histogram (Tick)
system.cpu.dcache.ReadReq.missLatencyDist::190-199         3478      2.77%     87.68% # number of ReadReq miss ticks histogram (Tick)
system.cpu.dcache.ReadReq.missLatencyDist::200-209         1916      1.53%     89.21% # number of ReadReq miss ticks histogram (Tick)
system.cpu.dcache.ReadReq.missLatencyDist::210-219         1493      1.19%     90.40% # number of ReadReq miss ticks histogram (Tick)
system.cpu.dcache.ReadReq.missLatencyDist::220-229         1507      1.20%     91.60% # number of ReadReq miss ticks histogram (Tick)
system.cpu.dcache.ReadReq.missLatencyDist::230-239         1829      1.46%     93.06% # number of ReadReq miss ticks histogram (Tick)
system.cpu.dcache.ReadReq.missLatencyDist::240-249         1764      1.41%     94.46% # number of ReadReq miss ticks histogram (Tick)
system.cpu.dcache.ReadReq.missLatencyDist::250-259         1262      1.01%     95.47% # number of ReadReq miss ticks histogram (Tick)
system.cpu.dcache.ReadReq.missLatencyDist::260-269         1110      0.88%     96.35% # number of ReadReq miss ticks histogram (Tick)
system.cpu.dcache.ReadReq.missLatencyDist::270-279          764      0.61%     96.96% # number of ReadReq miss ticks histogram (Tick)
system.cpu.dcache.ReadReq.missLatencyDist::280-289          595      0.47%     97.43% # number of ReadReq miss ticks histogram (Tick)
system.cpu.dcache.ReadReq.missLatencyDist::290-299          369      0.29%     97.73% # number of ReadReq miss ticks histogram (Tick)
system.cpu.dcache.ReadReq.missLatencyDist::300-309          289      0.23%     97.96% # number of ReadReq miss ticks histogram (Tick)
system.cpu.dcache.ReadReq.missLatencyDist::310-319          243      0.19%     98.15% # number of ReadReq miss ticks histogram (Tick)
system.cpu.dcache.ReadReq.missLatencyDist::320-329          172      0.14%     98.29% # number of ReadReq miss ticks histogram (Tick)
system.cpu.dcache.ReadReq.missLatencyDist::330-339          154      0.12%     98.41% # number of ReadReq miss ticks histogram (Tick)
system.cpu.dcache.ReadReq.missLatencyDist::340-349          118      0.09%     98.51% # number of ReadReq miss ticks histogram (Tick)
system.cpu.dcache.ReadReq.missLatencyDist::350-359           79      0.06%     98.57% # number of ReadReq miss ticks histogram (Tick)
system.cpu.dcache.ReadReq.missLatencyDist::360-369           53      0.04%     98.61% # number of ReadReq miss ticks histogram (Tick)
system.cpu.dcache.ReadReq.missLatencyDist::370-379           12      0.01%     98.62% # number of ReadReq miss ticks histogram (Tick)
system.cpu.dcache.ReadReq.missLatencyDist::380-389            8      0.01%     98.63% # number of ReadReq miss ticks histogram (Tick)
system.cpu.dcache.ReadReq.missLatencyDist::390-399            8      0.01%     98.63% # number of ReadReq miss ticks histogram (Tick)
system.cpu.dcache.ReadReq.missLatencyDist::400-409            5      0.00%     98.64% # number of ReadReq miss ticks histogram (Tick)
system.cpu.dcache.ReadReq.missLatencyDist::410-419            1      0.00%     98.64% # number of ReadReq miss ticks histogram (Tick)
system.cpu.dcache.ReadReq.missLatencyDist::420-429            3      0.00%     98.64% # number of ReadReq miss ticks histogram (Tick)
system.cpu.dcache.ReadReq.missLatencyDist::430-439            2      0.00%     98.64% # number of ReadReq miss ticks histogram (Tick)
system.cpu.dcache.ReadReq.missLatencyDist::450-459            1      0.00%     98.64% # number of ReadReq miss ticks histogram (Tick)
system.cpu.dcache.ReadReq.missLatencyDist::470-479            3      0.00%     98.64% # number of ReadReq miss ticks histogram (Tick)
system.cpu.dcache.ReadReq.missLatencyDist::530-539            1      0.00%     98.65% # number of ReadReq miss ticks histogram (Tick)
system.cpu.dcache.ReadReq.missLatencyDist::560-569            6      0.00%     98.65% # number of ReadReq miss ticks histogram (Tick)
system.cpu.dcache.ReadReq.missLatencyDist::570-579           11      0.01%     98.66% # number of ReadReq miss ticks histogram (Tick)
system.cpu.dcache.ReadReq.missLatencyDist::580-589           15      0.01%     98.67% # number of ReadReq miss ticks histogram (Tick)
system.cpu.dcache.ReadReq.missLatencyDist::590-599           26      0.02%     98.69% # number of ReadReq miss ticks histogram (Tick)
system.cpu.dcache.ReadReq.missLatencyDist::600-609           13      0.01%     98.70% # number of ReadReq miss ticks histogram (Tick)
system.cpu.dcache.ReadReq.missLatencyDist::610-619            8      0.01%     98.71% # number of ReadReq miss ticks histogram (Tick)
system.cpu.dcache.ReadReq.missLatencyDist::620-629           10      0.01%     98.72% # number of ReadReq miss ticks histogram (Tick)
system.cpu.dcache.ReadReq.missLatencyDist::630-639           17      0.01%     98.73% # number of ReadReq miss ticks histogram (Tick)
system.cpu.dcache.ReadReq.missLatencyDist::640-649           20      0.02%     98.75% # number of ReadReq miss ticks histogram (Tick)
system.cpu.dcache.ReadReq.missLatencyDist::650-659           23      0.02%     98.76% # number of ReadReq miss ticks histogram (Tick)
system.cpu.dcache.ReadReq.missLatencyDist::660-669           18      0.01%     98.78% # number of ReadReq miss ticks histogram (Tick)
system.cpu.dcache.ReadReq.missLatencyDist::670-679           37      0.03%     98.81% # number of ReadReq miss ticks histogram (Tick)
system.cpu.dcache.ReadReq.missLatencyDist::680-689           23      0.02%     98.83% # number of ReadReq miss ticks histogram (Tick)
system.cpu.dcache.ReadReq.missLatencyDist::690-699           36      0.03%     98.85% # number of ReadReq miss ticks histogram (Tick)
system.cpu.dcache.ReadReq.missLatencyDist::700-709           39      0.03%     98.89% # number of ReadReq miss ticks histogram (Tick)
system.cpu.dcache.ReadReq.missLatencyDist::710-719           54      0.04%     98.93% # number of ReadReq miss ticks histogram (Tick)
system.cpu.dcache.ReadReq.missLatencyDist::720-729           49      0.04%     98.97% # number of ReadReq miss ticks histogram (Tick)
system.cpu.dcache.ReadReq.missLatencyDist::730-739           52      0.04%     99.01% # number of ReadReq miss ticks histogram (Tick)
system.cpu.dcache.ReadReq.missLatencyDist::740-749           74      0.06%     99.07% # number of ReadReq miss ticks histogram (Tick)
system.cpu.dcache.ReadReq.missLatencyDist::750-759           93      0.07%     99.14% # number of ReadReq miss ticks histogram (Tick)
system.cpu.dcache.ReadReq.missLatencyDist::760-769           83      0.07%     99.21% # number of ReadReq miss ticks histogram (Tick)
system.cpu.dcache.ReadReq.missLatencyDist::770-779          100      0.08%     99.29% # number of ReadReq miss ticks histogram (Tick)
system.cpu.dcache.ReadReq.missLatencyDist::780-789           90      0.07%     99.36% # number of ReadReq miss ticks histogram (Tick)
system.cpu.dcache.ReadReq.missLatencyDist::790-799           57      0.05%     99.41% # number of ReadReq miss ticks histogram (Tick)
system.cpu.dcache.ReadReq.missLatencyDist::800-809           62      0.05%     99.45% # number of ReadReq miss ticks histogram (Tick)
system.cpu.dcache.ReadReq.missLatencyDist::810-819           66      0.05%     99.51% # number of ReadReq miss ticks histogram (Tick)
system.cpu.dcache.ReadReq.missLatencyDist::820-829           72      0.06%     99.56% # number of ReadReq miss ticks histogram (Tick)
system.cpu.dcache.ReadReq.missLatencyDist::830-839           57      0.05%     99.61% # number of ReadReq miss ticks histogram (Tick)
system.cpu.dcache.ReadReq.missLatencyDist::840-849           77      0.06%     99.67% # number of ReadReq miss ticks histogram (Tick)
system.cpu.dcache.ReadReq.missLatencyDist::850-859           69      0.05%     99.73% # number of ReadReq miss ticks histogram (Tick)
system.cpu.dcache.ReadReq.missLatencyDist::860-869           93      0.07%     99.80% # number of ReadReq miss ticks histogram (Tick)
system.cpu.dcache.ReadReq.missLatencyDist::870-879           51      0.04%     99.84% # number of ReadReq miss ticks histogram (Tick)
system.cpu.dcache.ReadReq.missLatencyDist::880-889           29      0.02%     99.86% # number of ReadReq miss ticks histogram (Tick)
system.cpu.dcache.ReadReq.missLatencyDist::890-899           23      0.02%     99.88% # number of ReadReq miss ticks histogram (Tick)
system.cpu.dcache.ReadReq.missLatencyDist::900-909            5      0.00%     99.89% # number of ReadReq miss ticks histogram (Tick)
system.cpu.dcache.ReadReq.missLatencyDist::910-919           10      0.01%     99.89% # number of ReadReq miss ticks histogram (Tick)
system.cpu.dcache.ReadReq.missLatencyDist::920-929           21      0.02%     99.91% # number of ReadReq miss ticks histogram (Tick)
system.cpu.dcache.ReadReq.missLatencyDist::930-939           18      0.01%     99.93% # number of ReadReq miss ticks histogram (Tick)
system.cpu.dcache.ReadReq.missLatencyDist::940-949            5      0.00%     99.93% # number of ReadReq miss ticks histogram (Tick)
system.cpu.dcache.ReadReq.missLatencyDist::950-959            8      0.01%     99.94% # number of ReadReq miss ticks histogram (Tick)
system.cpu.dcache.ReadReq.missLatencyDist::960-969           17      0.01%     99.95% # number of ReadReq miss ticks histogram (Tick)
system.cpu.dcache.ReadReq.missLatencyDist::970-979            4      0.00%     99.95% # number of ReadReq miss ticks histogram (Tick)
system.cpu.dcache.ReadReq.missLatencyDist::980-989           11      0.01%     99.96% # number of ReadReq miss ticks histogram (Tick)
system.cpu.dcache.ReadReq.missLatencyDist::990-999            4      0.00%     99.96% # number of ReadReq miss ticks histogram (Tick)
system.cpu.dcache.ReadReq.missLatencyDist::overflows           44      0.04%    100.00% # number of ReadReq miss ticks histogram (Tick)
system.cpu.dcache.ReadReq.missLatencyDist::min_value            5                       # number of ReadReq miss ticks histogram (Tick)
system.cpu.dcache.ReadReq.missLatencyDist::max_value         1124                       # number of ReadReq miss ticks histogram (Tick)
system.cpu.dcache.ReadReq.missLatencyDist::total       125501                       # number of ReadReq miss ticks histogram (Tick)
system.cpu.dcache.ReadReq.accesses::cpu.data      2011832                       # number of ReadReq accesses(hits+misses) (Count)
system.cpu.dcache.ReadReq.accesses::total      2011832                       # number of ReadReq accesses(hits+misses) (Count)
system.cpu.dcache.ReadReq.missRate::cpu.data     0.062381                       # miss rate for ReadReq accesses (Ratio)
system.cpu.dcache.ReadReq.missRate::total     0.062381                       # miss rate for ReadReq accesses (Ratio)
system.cpu.dcache.ReadReq.avgMissLatency::cpu.data 81955.339001                       # average ReadReq miss latency ((Tick/Count))
system.cpu.dcache.ReadReq.avgMissLatency::total 81955.339001                       # average ReadReq miss latency ((Tick/Count))
system.cpu.dcache.ReadReq.mshrHits::cpu.data        71669                       # number of ReadReq MSHR hits (Count)
system.cpu.dcache.ReadReq.mshrHits::total        71669                       # number of ReadReq MSHR hits (Count)
system.cpu.dcache.ReadReq.mshrMisses::cpu.data        53832                       # number of ReadReq MSHR misses (Count)
system.cpu.dcache.ReadReq.mshrMisses::total        53832                       # number of ReadReq MSHR misses (Count)
system.cpu.dcache.ReadReq.mshrMissLatency::cpu.data   4822072000                       # number of ReadReq MSHR miss ticks (Tick)
system.cpu.dcache.ReadReq.mshrMissLatency::total   4822072000                       # number of ReadReq MSHR miss ticks (Tick)
system.cpu.dcache.ReadReq.mshrMissRate::cpu.data     0.026758                       # mshr miss rate for ReadReq accesses (Ratio)
system.cpu.dcache.ReadReq.mshrMissRate::total     0.026758                       # mshr miss rate for ReadReq accesses (Ratio)
system.cpu.dcache.ReadReq.avgMshrMissLatency::cpu.data 89576.311488                       # average ReadReq mshr miss latency ((Tick/Count))
system.cpu.dcache.ReadReq.avgMshrMissLatency::total 89576.311488                       # average ReadReq mshr miss latency ((Tick/Count))
system.cpu.dcache.WriteReq.hits::cpu.data       721930                       # number of WriteReq hits (Count)
system.cpu.dcache.WriteReq.hits::total         721930                       # number of WriteReq hits (Count)
system.cpu.dcache.WriteReq.misses::cpu.data        62590                       # number of WriteReq misses (Count)
system.cpu.dcache.WriteReq.misses::total        62590                       # number of WriteReq misses (Count)
system.cpu.dcache.WriteReq.missLatency::cpu.data   5887659500                       # number of WriteReq miss ticks (Tick)
system.cpu.dcache.WriteReq.missLatency::total   5887659500                       # number of WriteReq miss ticks (Tick)
system.cpu.dcache.WriteReq.missLatencyDist::samples        62590                       # number of WriteReq miss ticks histogram (Tick)
system.cpu.dcache.WriteReq.missLatencyDist::mean   188.134191                       # number of WriteReq miss ticks histogram (Tick)
system.cpu.dcache.WriteReq.missLatencyDist::stdev    91.373841                       # number of WriteReq miss ticks histogram (Tick)
system.cpu.dcache.WriteReq.missLatencyDist::0-9          209      0.33%      0.33% # number of WriteReq miss ticks histogram (Tick)
system.cpu.dcache.WriteReq.missLatencyDist::10-19          514      0.82%      1.16% # number of WriteReq miss ticks histogram (Tick)
system.cpu.dcache.WriteReq.missLatencyDist::20-29          568      0.91%      2.06% # number of WriteReq miss ticks histogram (Tick)
system.cpu.dcache.WriteReq.missLatencyDist::30-39          211      0.34%      2.40% # number of WriteReq miss ticks histogram (Tick)
system.cpu.dcache.WriteReq.missLatencyDist::40-49          165      0.26%      2.66% # number of WriteReq miss ticks histogram (Tick)
system.cpu.dcache.WriteReq.missLatencyDist::50-59          183      0.29%      2.96% # number of WriteReq miss ticks histogram (Tick)
system.cpu.dcache.WriteReq.missLatencyDist::60-69          111      0.18%      3.13% # number of WriteReq miss ticks histogram (Tick)
system.cpu.dcache.WriteReq.missLatencyDist::70-79          101      0.16%      3.29% # number of WriteReq miss ticks histogram (Tick)
system.cpu.dcache.WriteReq.missLatencyDist::80-89          227      0.36%      3.66% # number of WriteReq miss ticks histogram (Tick)
system.cpu.dcache.WriteReq.missLatencyDist::90-99          202      0.32%      3.98% # number of WriteReq miss ticks histogram (Tick)
system.cpu.dcache.WriteReq.missLatencyDist::100-109          357      0.57%      4.55% # number of WriteReq miss ticks histogram (Tick)
system.cpu.dcache.WriteReq.missLatencyDist::110-119          506      0.81%      5.36% # number of WriteReq miss ticks histogram (Tick)
system.cpu.dcache.WriteReq.missLatencyDist::120-129         1719      2.75%      8.11% # number of WriteReq miss ticks histogram (Tick)
system.cpu.dcache.WriteReq.missLatencyDist::130-139          930      1.49%      9.59% # number of WriteReq miss ticks histogram (Tick)
system.cpu.dcache.WriteReq.missLatencyDist::140-149         4074      6.51%     16.10% # number of WriteReq miss ticks histogram (Tick)
system.cpu.dcache.WriteReq.missLatencyDist::150-159         2997      4.79%     20.89% # number of WriteReq miss ticks histogram (Tick)
system.cpu.dcache.WriteReq.missLatencyDist::160-169         4860      7.76%     28.65% # number of WriteReq miss ticks histogram (Tick)
system.cpu.dcache.WriteReq.missLatencyDist::170-179        20308     32.45%     61.10% # number of WriteReq miss ticks histogram (Tick)
system.cpu.dcache.WriteReq.missLatencyDist::180-189         8638     13.80%     74.90% # number of WriteReq miss ticks histogram (Tick)
system.cpu.dcache.WriteReq.missLatencyDist::190-199         2902      4.64%     79.54% # number of WriteReq miss ticks histogram (Tick)
system.cpu.dcache.WriteReq.missLatencyDist::200-209         1685      2.69%     82.23% # number of WriteReq miss ticks histogram (Tick)
system.cpu.dcache.WriteReq.missLatencyDist::210-219         1682      2.69%     84.92% # number of WriteReq miss ticks histogram (Tick)
system.cpu.dcache.WriteReq.missLatencyDist::220-229         1566      2.50%     87.42% # number of WriteReq miss ticks histogram (Tick)
system.cpu.dcache.WriteReq.missLatencyDist::230-239         1665      2.66%     90.08% # number of WriteReq miss ticks histogram (Tick)
system.cpu.dcache.WriteReq.missLatencyDist::240-249         1203      1.92%     92.00% # number of WriteReq miss ticks histogram (Tick)
system.cpu.dcache.WriteReq.missLatencyDist::250-259         1293      2.07%     94.07% # number of WriteReq miss ticks histogram (Tick)
system.cpu.dcache.WriteReq.missLatencyDist::260-269          906      1.45%     95.51% # number of WriteReq miss ticks histogram (Tick)
system.cpu.dcache.WriteReq.missLatencyDist::270-279          491      0.78%     96.30% # number of WriteReq miss ticks histogram (Tick)
system.cpu.dcache.WriteReq.missLatencyDist::280-289          316      0.50%     96.80% # number of WriteReq miss ticks histogram (Tick)
system.cpu.dcache.WriteReq.missLatencyDist::290-299          317      0.51%     97.31% # number of WriteReq miss ticks histogram (Tick)
system.cpu.dcache.WriteReq.missLatencyDist::300-309          211      0.34%     97.65% # number of WriteReq miss ticks histogram (Tick)
system.cpu.dcache.WriteReq.missLatencyDist::310-319          126      0.20%     97.85% # number of WriteReq miss ticks histogram (Tick)
system.cpu.dcache.WriteReq.missLatencyDist::320-329           91      0.15%     97.99% # number of WriteReq miss ticks histogram (Tick)
system.cpu.dcache.WriteReq.missLatencyDist::330-339           57      0.09%     98.08% # number of WriteReq miss ticks histogram (Tick)
system.cpu.dcache.WriteReq.missLatencyDist::340-349           61      0.10%     98.18% # number of WriteReq miss ticks histogram (Tick)
system.cpu.dcache.WriteReq.missLatencyDist::350-359           54      0.09%     98.27% # number of WriteReq miss ticks histogram (Tick)
system.cpu.dcache.WriteReq.missLatencyDist::360-369           52      0.08%     98.35% # number of WriteReq miss ticks histogram (Tick)
system.cpu.dcache.WriteReq.missLatencyDist::370-379           32      0.05%     98.40% # number of WriteReq miss ticks histogram (Tick)
system.cpu.dcache.WriteReq.missLatencyDist::380-389            4      0.01%     98.41% # number of WriteReq miss ticks histogram (Tick)
system.cpu.dcache.WriteReq.missLatencyDist::430-439            2      0.00%     98.41% # number of WriteReq miss ticks histogram (Tick)
system.cpu.dcache.WriteReq.missLatencyDist::530-539            1      0.00%     98.41% # number of WriteReq miss ticks histogram (Tick)
system.cpu.dcache.WriteReq.missLatencyDist::570-579            7      0.01%     98.42% # number of WriteReq miss ticks histogram (Tick)
system.cpu.dcache.WriteReq.missLatencyDist::580-589            6      0.01%     98.43% # number of WriteReq miss ticks histogram (Tick)
system.cpu.dcache.WriteReq.missLatencyDist::590-599            1      0.00%     98.44% # number of WriteReq miss ticks histogram (Tick)
system.cpu.dcache.WriteReq.missLatencyDist::600-609            1      0.00%     98.44% # number of WriteReq miss ticks histogram (Tick)
system.cpu.dcache.WriteReq.missLatencyDist::610-619            5      0.01%     98.45% # number of WriteReq miss ticks histogram (Tick)
system.cpu.dcache.WriteReq.missLatencyDist::620-629            6      0.01%     98.46% # number of WriteReq miss ticks histogram (Tick)
system.cpu.dcache.WriteReq.missLatencyDist::630-639           13      0.02%     98.48% # number of WriteReq miss ticks histogram (Tick)
system.cpu.dcache.WriteReq.missLatencyDist::640-649           16      0.03%     98.50% # number of WriteReq miss ticks histogram (Tick)
system.cpu.dcache.WriteReq.missLatencyDist::650-659           19      0.03%     98.53% # number of WriteReq miss ticks histogram (Tick)
system.cpu.dcache.WriteReq.missLatencyDist::660-669           32      0.05%     98.58% # number of WriteReq miss ticks histogram (Tick)
system.cpu.dcache.WriteReq.missLatencyDist::670-679           27      0.04%     98.63% # number of WriteReq miss ticks histogram (Tick)
system.cpu.dcache.WriteReq.missLatencyDist::680-689           16      0.03%     98.65% # number of WriteReq miss ticks histogram (Tick)
system.cpu.dcache.WriteReq.missLatencyDist::690-699           14      0.02%     98.67% # number of WriteReq miss ticks histogram (Tick)
system.cpu.dcache.WriteReq.missLatencyDist::700-709           14      0.02%     98.70% # number of WriteReq miss ticks histogram (Tick)
system.cpu.dcache.WriteReq.missLatencyDist::710-719           24      0.04%     98.73% # number of WriteReq miss ticks histogram (Tick)
system.cpu.dcache.WriteReq.missLatencyDist::720-729           34      0.05%     98.79% # number of WriteReq miss ticks histogram (Tick)
system.cpu.dcache.WriteReq.missLatencyDist::730-739           42      0.07%     98.86% # number of WriteReq miss ticks histogram (Tick)
system.cpu.dcache.WriteReq.missLatencyDist::740-749           31      0.05%     98.91% # number of WriteReq miss ticks histogram (Tick)
system.cpu.dcache.WriteReq.missLatencyDist::750-759           35      0.06%     98.96% # number of WriteReq miss ticks histogram (Tick)
system.cpu.dcache.WriteReq.missLatencyDist::760-769           21      0.03%     99.00% # number of WriteReq miss ticks histogram (Tick)
system.cpu.dcache.WriteReq.missLatencyDist::770-779           47      0.08%     99.07% # number of WriteReq miss ticks histogram (Tick)
system.cpu.dcache.WriteReq.missLatencyDist::780-789           26      0.04%     99.11% # number of WriteReq miss ticks histogram (Tick)
system.cpu.dcache.WriteReq.missLatencyDist::790-799           38      0.06%     99.17% # number of WriteReq miss ticks histogram (Tick)
system.cpu.dcache.WriteReq.missLatencyDist::800-809           48      0.08%     99.25% # number of WriteReq miss ticks histogram (Tick)
system.cpu.dcache.WriteReq.missLatencyDist::810-819           30      0.05%     99.30% # number of WriteReq miss ticks histogram (Tick)
system.cpu.dcache.WriteReq.missLatencyDist::820-829           54      0.09%     99.38% # number of WriteReq miss ticks histogram (Tick)
system.cpu.dcache.WriteReq.missLatencyDist::830-839           26      0.04%     99.42% # number of WriteReq miss ticks histogram (Tick)
system.cpu.dcache.WriteReq.missLatencyDist::840-849           44      0.07%     99.50% # number of WriteReq miss ticks histogram (Tick)
system.cpu.dcache.WriteReq.missLatencyDist::850-859           28      0.04%     99.54% # number of WriteReq miss ticks histogram (Tick)
system.cpu.dcache.WriteReq.missLatencyDist::860-869           28      0.04%     99.58% # number of WriteReq miss ticks histogram (Tick)
system.cpu.dcache.WriteReq.missLatencyDist::870-879           30      0.05%     99.63% # number of WriteReq miss ticks histogram (Tick)
system.cpu.dcache.WriteReq.missLatencyDist::880-889           27      0.04%     99.68% # number of WriteReq miss ticks histogram (Tick)
system.cpu.dcache.WriteReq.missLatencyDist::890-899           23      0.04%     99.71% # number of WriteReq miss ticks histogram (Tick)
system.cpu.dcache.WriteReq.missLatencyDist::900-909           22      0.04%     99.75% # number of WriteReq miss ticks histogram (Tick)
system.cpu.dcache.WriteReq.missLatencyDist::910-919           22      0.04%     99.78% # number of WriteReq miss ticks histogram (Tick)
system.cpu.dcache.WriteReq.missLatencyDist::920-929           16      0.03%     99.81% # number of WriteReq miss ticks histogram (Tick)
system.cpu.dcache.WriteReq.missLatencyDist::930-939           13      0.02%     99.83% # number of WriteReq miss ticks histogram (Tick)
system.cpu.dcache.WriteReq.missLatencyDist::940-949           19      0.03%     99.86% # number of WriteReq miss ticks histogram (Tick)
system.cpu.dcache.WriteReq.missLatencyDist::950-959            3      0.00%     99.86% # number of WriteReq miss ticks histogram (Tick)
system.cpu.dcache.WriteReq.missLatencyDist::960-969           17      0.03%     99.89% # number of WriteReq miss ticks histogram (Tick)
system.cpu.dcache.WriteReq.missLatencyDist::970-979            1      0.00%     99.89% # number of WriteReq miss ticks histogram (Tick)
system.cpu.dcache.WriteReq.missLatencyDist::980-989           11      0.02%     99.91% # number of WriteReq miss ticks histogram (Tick)
system.cpu.dcache.WriteReq.missLatencyDist::990-999           10      0.02%     99.93% # number of WriteReq miss ticks histogram (Tick)
system.cpu.dcache.WriteReq.missLatencyDist::overflows           46      0.07%    100.00% # number of WriteReq miss ticks histogram (Tick)
[...]
system.mem_ctrls.dram.totMemAccLat         2676683312                       # Total ticks spent from burst creation until serviced by the DRAM (Tick)
system.mem_ctrls.dram.avgQLat                32742.28                       # Average queueing delay per DRAM burst ((Tick/Count))
system.mem_ctrls.dram.avgBusLat               3332.00                       # Average bus latency per DRAM burst ((Tick/Count))
system.mem_ctrls.dram.avgMemAccLat           50234.28                       # Average memory access latency per DRAM burst ((Tick/Count))
system.mem_ctrls.dram.readRowHits                7522                       # Number of row buffer hits during reads (Count)
system.mem_ctrls.dram.writeRowHits              24330                       # Number of row buffer hits during writes (Count)
system.mem_ctrls.dram.readRowHitRate            14.12                       # Row buffer hit rate for reads (Ratio)
system.mem_ctrls.dram.writeRowHitRate           46.52                       # Row buffer hit rate for writes (Ratio)
system.mem_ctrls.dram.bytesPerActivate::samples        73731                       # Bytes accessed per row activation (Byte)
system.mem_ctrls.dram.bytesPerActivate::mean    91.649917                       # Bytes accessed per row activation (Byte)
system.mem_ctrls.dram.bytesPerActivate::gmean    81.203851                       # Bytes accessed per row activation (Byte)
system.mem_ctrls.dram.bytesPerActivate::stdev    59.657532                       # Bytes accessed per row activation (Byte)
system.mem_ctrls.dram.bytesPerActivate::64-127        54387     73.76%     73.76% # Bytes accessed per row activation (Byte)
system.mem_ctrls.dram.bytesPerActivate::128-191        12705     17.23%     91.00% # Bytes accessed per row activation (Byte)
system.mem_ctrls.dram.bytesPerActivate::192-255         3364      4.56%     95.56% # Bytes accessed per row activation (Byte)
system.mem_ctrls.dram.bytesPerActivate::256-319         1842      2.50%     98.06% # Bytes accessed per row activation (Byte)
system.mem_ctrls.dram.bytesPerActivate::320-383          763      1.03%     99.09% # Bytes accessed per row activation (Byte)
system.mem_ctrls.dram.bytesPerActivate::384-447          390      0.53%     99.62% # Bytes accessed per row activation (Byte)
system.mem_ctrls.dram.bytesPerActivate::448-511          151      0.20%     99.83% # Bytes accessed per row activation (Byte)
system.mem_ctrls.dram.bytesPerActivate::512-575           81      0.11%     99.93% # Bytes accessed per row activation (Byte)
system.mem_ctrls.dram.bytesPerActivate::576-639           26      0.04%     99.97% # Bytes accessed per row activation (Byte)
system.mem_ctrls.dram.bytesPerActivate::640-703           13      0.02%     99.99% # Bytes accessed per row activation (Byte)
system.mem_ctrls.dram.bytesPerActivate::704-767            5      0.01%     99.99% # Bytes accessed per row activation (Byte)
system.mem_ctrls.dram.bytesPerActivate::768-831            3      0.00%    100.00% # Bytes accessed per row activation (Byte)
system.mem_ctrls.dram.bytesPerActivate::832-895            1      0.00%    100.00% # Bytes accessed per row activation (Byte)
system.mem_ctrls.dram.bytesPerActivate::total        73731                       # Bytes accessed per row activation (Byte)
system.mem_ctrls.dram.bytesRead               3410176                       # Total bytes read (Byte)
system.mem_ctrls.dram.bytesWritten            3347008                       # Total bytes written (Byte)
system.mem_ctrls.dram.avgRdBW             1021.538828                       # Average DRAM read bandwidth in MiBytes/s ((Byte/Second))
system.mem_ctrls.dram.avgWrBW             1002.616472                       # Average DRAM write bandwidth in MiBytes/s ((Byte/Second))
system.mem_ctrls.dram.peakBW                 19207.00                       # Theoretical peak bandwidth in MiByte/s ((Byte/Second))
system.mem_ctrls.dram.busUtil                   10.54                       # Data bus utilization in percentage (Ratio)
system.mem_ctrls.dram.busUtilRead                5.32                       # Data bus utilization in percentage for reads (Ratio)
system.mem_ctrls.dram.busUtilWrite               5.22                       # Data bus utilization in percentage for writes (Ratio)
system.mem_ctrls.dram.pageHitRate               30.17                       # Row buffer hit rate, read and write combined (Ratio)
system.mem_ctrls.dram.power_state.pwrStateResidencyTicks::UNDEFINED   3338273500                       # Cumulative time (in ticks) in various power states (Tick)
system.mem_ctrls.dram.rank0.actEnergy    113797022.976000                       # Energy for activate commands per rank (pJ) (Joule)
system.mem_ctrls.dram.rank0.preEnergy    151304122.132800                       # Energy for precharge commands per rank (pJ) (Joule)
system.mem_ctrls.dram.rank0.readEnergy   110373752.832000                       # Energy for read commands per rank (pJ) (Joule)
system.mem_ctrls.dram.rank0.writeEnergy  98457561.216000                       # Energy for write commands per rank (pJ) (Joule)
system.mem_ctrls.dram.rank0.refreshEnergy 594327002.068803                       # Energy for refresh commands per rank (pJ) (Joule)
system.mem_ctrls.dram.rank0.actBackEnergy 2814058218.283194                       # Energy for active background per rank (pJ) (Joule)
system.mem_ctrls.dram.rank0.preBackEnergy 17010601.036800                       # Energy for precharge background per rank (pJ) (Joule)
system.mem_ctrls.dram.rank0.actPowerDownEnergy            0                       # Energy for active power-down per rank (pJ) (Joule)
system.mem_ctrls.dram.rank0.prePowerDownEnergy            0                       # Energy for precharge power-down per rank (pJ) (Joule)
system.mem_ctrls.dram.rank0.selfRefreshEnergy            0                       # Energy for self refresh per rank (pJ) (Joule)
system.mem_ctrls.dram.rank0.totalEnergy  3899328280.545599                       # Total energy per rank (pJ) (Joule)
system.mem_ctrls.dram.rank0.averagePower  1168.067350                       # Core power per rank (mW) (Watt)
system.mem_ctrls.dram.rank0.totalIdleTime            0                       # Total Idle time Per DRAM Rank (Tick)
system.mem_ctrls.dram.rank0.pwrStateTime::IDLE     13849996                       # Time in different power states (Tick)
system.mem_ctrls.dram.rank0.pwrStateTime::REF    150150000                       # Time in different power states (Tick)
system.mem_ctrls.dram.rank0.pwrStateTime::SREF            0                       # Time in different power states (Tick)
system.mem_ctrls.dram.rank0.pwrStateTime::PRE_PDN            0                       # Time in different power states (Tick)
system.mem_ctrls.dram.rank0.pwrStateTime::ACT   3174273504                       # Time in different power states (Tick)
system.mem_ctrls.dram.rank0.pwrStateTime::ACT_PDN            0                       # Time in different power states (Tick)
system.mem_ctrls.dram.rank1.actEnergy    116151680.736000                       # Energy for activate commands per rank (pJ) (Joule)
system.mem_ctrls.dram.rank1.preEnergy    154418024.073600                       # Energy for precharge commands per rank (pJ) (Joule)
system.mem_ctrls.dram.rank1.readEnergy   113755631.539200                       # Energy for read commands per rank (pJ) (Joule)
system.mem_ctrls.dram.rank1.writeEnergy  98130572.064000                       # Energy for write commands per rank (pJ) (Joule)
system.mem_ctrls.dram.rank1.refreshEnergy 594327002.068803                       # Energy for refresh commands per rank (pJ) (Joule)
system.mem_ctrls.dram.rank1.actBackEnergy 2815938621.820797                       # Energy for active background per rank (pJ) (Joule)
system.mem_ctrls.dram.rank1.preBackEnergy 15565771.200000                       # Energy for precharge background per rank (pJ) (Joule)
system.mem_ctrls.dram.rank1.actPowerDownEnergy            0                       # Energy for active power-down per rank (pJ) (Joule)
system.mem_ctrls.dram.rank1.prePowerDownEnergy            0                       # Energy for precharge power-down per rank (pJ) (Joule)
system.mem_ctrls.dram.rank1.selfRefreshEnergy            0                       # Energy for self refresh per rank (pJ) (Joule)
system.mem_ctrls.dram.rank1.totalEnergy  3908287303.502398                       # Total energy per rank (pJ) (Joule)
system.mem_ctrls.dram.rank1.averagePower  1170.751079                       # Core power per rank (mW) (Watt)
system.mem_ctrls.dram.rank1.totalIdleTime            0                       # Total Idle time Per DRAM Rank (Tick)
system.mem_ctrls.dram.rank1.pwrStateTime::IDLE     11528252                       # Time in different power states (Tick)
system.mem_ctrls.dram.rank1.pwrStateTime::REF    150150000                       # Time in different power states (Tick)
system.mem_ctrls.dram.rank1.pwrStateTime::SREF            0                       # Time in different power states (Tick)
system.mem_ctrls.dram.rank1.pwrStateTime::PRE_PDN            0                       # Time in different power states (Tick)
system.mem_ctrls.dram.rank1.pwrStateTime::ACT   3176595248                       # Time in different power states (Tick)
system.mem_ctrls.dram.rank1.pwrStateTime::ACT_PDN            0                       # Time in different power states (Tick)
system.mem_ctrls.power_state.pwrStateResidencyTicks::UNDEFINED   3338273500                       # Cumulative time (in ticks) in various power states (Tick)
system.membus.transDist::ReadResp               53284                       # Transaction distribution (Count)
system.membus.transDist::WritebackDirty         15381                       # Transaction distribution (Count)
system.membus.transDist::WritebackClean         36915                       # Transaction distribution (Count)
system.membus.transDist::CleanEvict              1055                       # Transaction distribution (Count)
system.membus.transDist::ReadCleanReq           53284                       # Transaction distribution (Count)
system.membus.pktCount_system.l2.mem_side_port::system.mem_ctrls.port       159919                       # Packet count per connected requestor and responder (Count)
system.membus.pktCount_system.l2.mem_side_port::total       159919                       # Packet count per connected requestor and responder (Count)
system.membus.pktCount::total                  159919                       # Packet count per connected requestor and responder (Count)
system.membus.pktSize_system.l2.mem_side_port::system.mem_ctrls.port      6757120                       # Cumulative packet size per connected requestor and responder (Byte)
system.membus.pktSize_system.l2.mem_side_port::total      6757120                       # Cumulative packet size per connected requestor and responder (Byte)
system.membus.pktSize::total                  6757120                       # Cumulative packet size per connected requestor and responder (Byte)
system.membus.snoops                                0                       # Total snoops (Count)
system.membus.snoopTraffic                          0                       # Total snoop traffic (Byte)
system.membus.snoopFanout::samples              53284                       # Request fanout histogram (Count)
system.membus.snoopFanout::mean                     0                       # Request fanout histogram (Count)
system.membus.snoopFanout::stdev                    0                       # Request fanout histogram (Count)
system.membus.snoopFanout::underflows               0      0.00%      0.00% # Request fanout histogram (Count)
system.membus.snoopFanout::0                    53284    100.00%    100.00% # Request fanout histogram (Count)
system.membus.snoopFanout::1                        0      0.00%    100.00% # Request fanout histogram (Count)
system.membus.snoopFanout::2                        0      0.00%    100.00% # Request fanout histogram (Count)
system.membus.snoopFanout::overflows                0      0.00%    100.00% # Request fanout histogram (Count)
system.membus.snoopFanout::min_value                0                       # Request fanout histogram (Count)
system.membus.snoopFanout::max_value                0                       # Request fanout histogram (Count)
system.membus.snoopFanout::total                53284                       # Request fanout histogram (Count)
system.membus.badaddr_responder.power_state.pwrStateResidencyTicks::UNDEFINED   3338273500                       # Cumulative time (in ticks) in various power states (Tick)
system.membus.power_state.pwrStateResidencyTicks::UNDEFINED   3338273500                       # Cumulative time (in ticks) in various power states (Tick)
system.membus.reqLayer1.occupancy           328596000                       # Layer occupancy (ticks) (Tick)
system.membus.reqLayer1.utilization               0.1                       # Layer utilization (Ratio)
system.membus.respLayer2.occupancy          278461848                       # Layer occupancy (ticks) (Tick)
system.membus.respLayer2.utilization              0.1                       # Layer utilization (Ratio)
system.membus.snoop_filter.totRequests         106635                       # Total number of requests made to the snoop filter. (Count)
system.membus.snoop_filter.hitSingleRequests        53372                       # Number of requests hitting in the snoop filter with a single holder of the requested data. (Count)
system.membus.snoop_filter.hitMultiRequests            0                       # Number of requests hitting in the snoop filter with multiple (>1) holders of the requested data. (Count)
system.membus.snoop_filter.totSnoops                0                       # Total number of snoops made to the snoop filter. (Count)
system.membus.snoop_filter.hitSingleSnoops            0                       # Number of snoops hitting in the snoop filter with a single holder of the requested data. (Count)
system.membus.snoop_filter.hitMultiSnoops            0                       # Number of snoops hitting in the snoop filter with multiple (>1) holders of the requested data. (Count)
system.mmcs.power_state.pwrStateResidencyTicks::UNDEFINED   3338273500                       # Cumulative time (in ticks) in various power states (Tick)
system.tol2bus.transDist::ReadResp              58566                       # Transaction distribution (Count)
system.tol2bus.transDist::WritebackDirty        33104                       # Transaction distribution (Count)
system.tol2bus.transDist::WritebackClean        76683                       # Transaction distribution (Count)
system.tol2bus.transDist::CleanEvict             1076                       # Transaction distribution (Count)
system.tol2bus.transDist::ReadSharedReq         58566                       # Transaction distribution (Count)
system.tol2bus.pktCount_system.cpu.dcache.mem_side_port::system.l2.cpu_side_port       172470                       # Packet count per connected requestor and responder (Count)
system.tol2bus.pktCount_system.cpu.dtb_walker_cache.mem_side_port::system.l2.cpu_side_port         3228                       # Packet count per connected requestor and responder (Count)
system.tol2bus.pktCount::total                 175698                       # Packet count per connected requestor and responder (Count)
system.tol2bus.pktSize_system.cpu.dcache.mem_side_port::system.l2.cpu_side_port      7358720                       # Cumulative packet size per connected requestor and responder (Byte)
system.tol2bus.pktSize_system.cpu.dtb_walker_cache.mem_side_port::system.l2.cpu_side_port        68864                       # Cumulative packet size per connected requestor and responder (Byte)
system.tol2bus.pktSize::total                 7427584                       # Cumulative packet size per connected requestor and responder (Byte)
system.tol2bus.snoops                           52297                       # Total snoops (Count)
system.tol2bus.snoopTraffic                   3347008                       # Total snoop traffic (Byte)
system.tol2bus.snoopFanout::samples            110863                       # Request fanout histogram (Count)
system.tol2bus.snoopFanout::mean             0.000189                       # Request fanout histogram (Count)
system.tol2bus.snoopFanout::stdev            0.013762                       # Request fanout histogram (Count)
system.tol2bus.snoopFanout::underflows              0      0.00%      0.00% # Request fanout histogram (Count)
system.tol2bus.snoopFanout::0                  110842     99.98%     99.98% # Request fanout histogram (Count)
system.tol2bus.snoopFanout::1                      21      0.02%    100.00% # Request fanout histogram (Count)
system.tol2bus.snoopFanout::2                       0      0.00%    100.00% # Request fanout histogram (Count)
system.tol2bus.snoopFanout::3                       0      0.00%    100.00% # Request fanout histogram (Count)
system.tol2bus.snoopFanout::4                       0      0.00%    100.00% # Request fanout histogram (Count)
system.tol2bus.snoopFanout::overflows               0      0.00%    100.00% # Request fanout histogram (Count)
system.tol2bus.snoopFanout::min_value               0                       # Request fanout histogram (Count)
system.tol2bus.snoopFanout::max_value               1                       # Request fanout histogram (Count)
system.tol2bus.snoopFanout::total              110863                       # Request fanout histogram (Count)
system.tol2bus.power_state.pwrStateResidencyTicks::UNDEFINED   3338273500                       # Cumulative time (in ticks) in various power states (Tick)
system.tol2bus.reqLayer0.occupancy           87311000                       # Layer occupancy (ticks) (Tick)
system.tol2bus.reqLayer0.utilization              0.0                       # Layer utilization (Ratio)
system.tol2bus.respLayer1.occupancy          57490000                       # Layer occupancy (ticks) (Tick)
system.tol2bus.respLayer1.utilization             0.0                       # Layer utilization (Ratio)
system.tol2bus.respLayer3.occupancy           1076000                       # Layer occupancy (ticks) (Tick)
system.tol2bus.respLayer3.utilization             0.0                       # Layer utilization (Ratio)
system.tol2bus.snoop_filter.totRequests        117132                       # Total number of requests made to the snoop filter. (Count)
system.tol2bus.snoop_filter.hitSingleRequests        58566                       # Number of requests hitting in the snoop filter with a single holder of the requested data. (Count)
system.tol2bus.snoop_filter.hitMultiRequests           21                       # Number of requests hitting in the snoop filter with multiple (>1) holders of the requested data. (Count)
system.tol2bus.snoop_filter.totSnoops               0                       # Total number of snoops made to the snoop filter. (Count)
system.tol2bus.snoop_filter.hitSingleSnoops            0                       # Number of snoops hitting in the snoop filter with a single holder of the requested data. (Count)
system.tol2bus.snoop_filter.hitMultiSnoops            0                       # Number of snoops hitting in the snoop filter with multiple (>1) holders of the requested data. (Count)
system.uartlite.power_state.pwrStateResidencyTicks::UNDEFINED   3338273500                       # Cumulative time (in ticks) in various power states (Tick)
system.voltage_domain.voltage                       1                       # Voltage in Volts (Volt)
system.workload.inst.arm                            0                       # number of arm instructions executed (Count)
system.workload.inst.quiesce                        0                       # number of quiesce instructions executed (Count)

---------- End Simulation Statistics   ----------
