
---------- Begin Simulation Statistics ----------
simSeconds                                   0.012439                       # Number of seconds simulated (Second)
simTicks                                  12438741500                       # Number of ticks simulated (Tick)
finalTick                                 12438741500                       # Number of ticks from beginning of simulation (restored from checkpoints and never reset) (Tick)
simFreq                                  1000000000000                       # The number of ticks per simulated second ((Tick/Second))
hostSeconds                                    811.73                       # Real time elapsed on the host (Second)
hostTickRate                                 15323659                       # The number of ticks simulated per host second (ticks/s) ((Tick/Second))
hostMemory                                   24363596                       # Number of bytes of host memory used (Byte)
simInsts                                     50000002                       # Number of instructions simulated (Count)
simOps                                       50000002                       # Number of ops (including micro ops) simulated (Count)
hostInstRate                                    61596                       # Simulator instruction rate (inst/s) ((Count/Second))
hostOpRate                                      61596                       # Simulator op (including micro ops) rate (op/s) ((Count/Second))
system.bridge.power_state.pwrStateResidencyTicks::UNDEFINED  12438741500                       # Cumulative time (in ticks) in various power states (Tick)
system.clk_domain.clock                          1000                       # Clock period in ticks (Tick)
system.cpu.numCycles                         24877485                       # Number of cpu cycles simulated (Cycle)
system.cpu.numWorkItemsStarted                      0                       # Number of work items this cpu started (Count)
system.cpu.numWorkItemsCompleted                    0                       # Number of work items this cpu completed (Count)
system.cpu.instsAdded                        50201578                       # Number of instructions added to the IQ (excludes non-spec) (Count)
system.cpu.nonSpecInstsAdded                     2777                       # Number of non-speculative instructions added to the IQ (Count)
system.cpu.instsIssued                       50211828                       # Number of instructions issued (Count)
system.cpu.squashedInstsIssued                   4896                       # Number of squashed instructions issued (Count)
system.cpu.squashedInstsExamined               204241                       # Number of squashed instructions iterated over during squash; mainly for profiling (Count)
system.cpu.squashedOperandsExamined            130036                       # Number of squashed operands that are examined and possibly removed from graph (Count)
system.cpu.squashedNonSpecRemoved                   8                       # Number of squashed non-spec instructions that were removed (Count)
system.cpu.numIssuedDist::samples            24858128                       # Number of insts issued each cycle (Count)
system.cpu.numIssuedDist::mean               2.019936                       # Number of insts issued each cycle (Count)
system.cpu.numIssuedDist::stdev              2.372511                       # Number of insts issued each cycle (Count)
system.cpu.numIssuedDist::underflows                0      0.00%      0.00% # Number of insts issued each cycle (Count)
system.cpu.numIssuedDist::0                  11102486     44.66%     44.66% # Number of insts issued each cycle (Count)
system.cpu.numIssuedDist::1                   2670434     10.74%     55.41% # Number of insts issued each cycle (Count)
system.cpu.numIssuedDist::2                   2149126      8.65%     64.05% # Number of insts issued each cycle (Count)
system.cpu.numIssuedDist::3                   2166656      8.72%     72.77% # Number of insts issued each cycle (Count)
system.cpu.numIssuedDist::4                   2045595      8.23%     81.00% # Number of insts issued each cycle (Count)
system.cpu.numIssuedDist::5                   1846574      7.43%     88.43% # Number of insts issued each cycle (Count)
system.cpu.numIssuedDist::6                   1446575      5.82%     94.24% # Number of insts issued each cycle (Count)
system.cpu.numIssuedDist::7                    796982      3.21%     97.45% # Number of insts issued each cycle (Count)
system.cpu.numIssuedDist::8                    633700      2.55%    100.00% # Number of insts issued each cycle (Count)
system.cpu.numIssuedDist::overflows                 0      0.00%    100.00% # Number of insts issued each cycle (Count)
system.cpu.numIssuedDist::min_value                 0                       # Number of insts issued each cycle (Count)
system.cpu.numIssuedDist::max_value                 8                       # Number of insts issued each cycle (Count)
system.cpu.numIssuedDist::total              24858128                       # Number of insts issued each cycle (Count)
system.cpu.statFuBusy::No_OpClass                   0      0.00%      0.00% # attempts to use FU when none available (Count)
system.cpu.statFuBusy::IntAlu                  267946     23.79%     23.79% # attempts to use FU when none available (Count)
system.cpu.statFuBusy::IntMult                    106      0.01%     23.80% # attempts to use FU when none available (Count)
system.cpu.statFuBusy::IntDiv                       0      0.00%     23.80% # attempts to use FU when none available (Count)
system.cpu.statFuBusy::FloatAdd                     2      0.00%     23.80% # attempts to use FU when none available (Count)
system.cpu.statFuBusy::FloatCmp                     0      0.00%     23.80% # attempts to use FU when none available (Count)
system.cpu.statFuBusy::FloatCvt                     0      0.00%     23.80% # attempts to use FU when none available (Count)
system.cpu.statFuBusy::FloatMult               126450     11.23%     35.02% # attempts to use FU when none available (Count)
system.cpu.statFuBusy::FloatMultAcc             56981      5.06%     40.08% # attempts to use FU when none available (Count)
system.cpu.statFuBusy::FloatDiv                 18061      1.60%     41.69% # attempts to use FU when none available (Count)
system.cpu.statFuBusy::FloatMisc                65020      5.77%     47.46% # attempts to use FU when none available (Count)
system.cpu.statFuBusy::FloatSqrt                    0      0.00%     47.46% # attempts to use FU when none available (Count)
system.cpu.statFuBusy::SimdAdd                      0      0.00%     47.46% # attempts to use FU when none available (Count)
system.cpu.statFuBusy::SimdAddAcc                   0      0.00%     47.46% # attempts to use FU when none available (Count)
system.cpu.statFuBusy::SimdAlu                      0      0.00%     47.46% # attempts to use FU when none available (Count)
system.cpu.statFuBusy::SimdCmp                      0      0.00%     47.46% # attempts to use FU when none available (Count)
system.cpu.statFuBusy::SimdCvt                      0      0.00%     47.46% # attempts to use FU when none available (Count)
system.cpu.statFuBusy::SimdMisc                     0      0.00%     47.46% # attempts to use FU when none available (Count)
system.cpu.statFuBusy::SimdMult                     0      0.00%     47.46% # attempts to use FU when none available (Count)
system.cpu.statFuBusy::SimdMultAcc                  0      0.00%     47.46% # attempts to use FU when none available (Count)
system.cpu.statFuBusy::SimdShift                    0      0.00%     47.46% # attempts to use FU when none available (Count)
system.cpu.statFuBusy::SimdShiftAcc                 0      0.00%     47.46% # attempts to use FU when none available (Count)
system.cpu.statFuBusy::SimdDiv                      0      0.00%     47.46% # attempts to use FU when none available (Count)
system.cpu.statFuBusy::SimdSqrt                     0      0.00%     47.46% # attempts to use FU when none available (Count)
system.cpu.statFuBusy::SimdFloatAdd                 0      0.00%     47.46% # attempts to use FU when none available (Count)
system.cpu.statFuBusy::SimdFloatAlu                 0      0.00%     47.46% # attempts to use FU when none available (Count)
system.cpu.statFuBusy::SimdFloatCmp                 0      0.00%     47.46% # attempts to use FU when none available (Count)
system.cpu.statFuBusy::SimdFloatCvt                 0      0.00%     47.46% # attempts to use FU when none available (Count)
system.cpu.statFuBusy::SimdFloatDiv                 0      0.00%     47.46% # attempts to use FU when none available (Count)
system.cpu.statFuBusy::SimdFloatMisc                0      0.00%     47.46% # attempts to use FU when none available (Count)
system.cpu.statFuBusy::SimdFloatMult                0      0.00%     47.46% # attempts to use FU when none available (Count)
system.cpu.statFuBusy::SimdFloatMultAcc             0      0.00%     47.46% # attempts to use FU when none available (Count)
system.cpu.statFuBusy::SimdFloatSqrt                0      0.00%     47.46% # attempts to use FU when none available (Count)
system.cpu.statFuBusy::SimdReduceAdd                0      0.00%     47.46% # attempts to use FU when none available (Count)
system.cpu.statFuBusy::SimdReduceAlu                0      0.00%     47.46% # attempts to use FU when none available (Count)
system.cpu.statFuBusy::SimdReduceCmp                0      0.00%     47.46% # attempts to use FU when none available (Count)
system.cpu.statFuBusy::SimdFloatReduceAdd            0      0.00%     47.46% # attempts to use FU when none available (Count)
system.cpu.statFuBusy::SimdFloatReduceCmp            0      0.00%     47.46% # attempts to use FU when none available (Count)
system.cpu.statFuBusy::SimdAes                      0      0.00%     47.46% # attempts to use FU when none available (Count)
system.cpu.statFuBusy::SimdAesMix                   0      0.00%     47.46% # attempts to use FU when none available (Count)
system.cpu.statFuBusy::SimdSha1Hash                 0      0.00%     47.46% # attempts to use FU when none available (Count)
system.cpu.statFuBusy::SimdSha1Hash2                0      0.00%     47.46% # attempts to use FU when none available (Count)
system.cpu.statFuBusy::SimdSha256Hash               0      0.00%     47.46% # attempts to use FU when none available (Count)
system.cpu.statFuBusy::SimdSha256Hash2              0      0.00%     47.46% # attempts to use FU when none available (Count)
system.cpu.statFuBusy::SimdShaSigma2                0      0.00%     47.46% # attempts to use FU when none available (Count)
system.cpu.statFuBusy::SimdShaSigma3                0      0.00%     47.46% # attempts to use FU when none available (Count)
system.cpu.statFuBusy::SimdPredAlu                  0      0.00%     47.46% # attempts to use FU when none available (Count)
system.cpu.statFuBusy::MemRead                 208873     18.54%     66.00% # attempts to use FU when none available (Count)
system.cpu.statFuBusy::MemWrite                116228     10.32%     76.32% # attempts to use FU when none available (Count)
system.cpu.statFuBusy::FloatMemRead            215993     19.18%     95.50% # attempts to use FU when none available (Count)
system.cpu.statFuBusy::FloatMemWrite            50737      4.50%    100.00% # attempts to use FU when none available (Count)
system.cpu.statFuBusy::IprAccess                    0      0.00%    100.00% # attempts to use FU when none available (Count)
system.cpu.statFuBusy::InstPrefetch                 0      0.00%    100.00% # attempts to use FU when none available (Count)
system.cpu.statIssuedInstType_0::No_OpClass         2775      0.01%      0.01% # Number of instructions issued per FU type, per thread (Count)
system.cpu.statIssuedInstType_0::IntAlu      29629704     59.01%     59.01% # Number of instructions issued per FU type, per thread (Count)
system.cpu.statIssuedInstType_0::IntMult       626135      1.25%     60.26% # Number of instructions issued per FU type, per thread (Count)
system.cpu.statIssuedInstType_0::IntDiv             0      0.00%     60.26% # Number of instructions issued per FU type, per thread (Count)
system.cpu.statIssuedInstType_0::FloatAdd       296720      0.59%     60.85% # Number of instructions issued per FU type, per thread (Count)
system.cpu.statIssuedInstType_0::FloatCmp         1368      0.00%     60.86% # Number of instructions issued per FU type, per thread (Count)
system.cpu.statIssuedInstType_0::FloatCvt       192337      0.38%     61.24% # Number of instructions issued per FU type, per thread (Count)
system.cpu.statIssuedInstType_0::FloatMult       414617      0.83%     62.06% # Number of instructions issued per FU type, per thread (Count)
system.cpu.statIssuedInstType_0::FloatMultAcc      2420246      4.82%     66.88% # Number of instructions issued per FU type, per thread (Count)
system.cpu.statIssuedInstType_0::FloatDiv         9945      0.02%     66.90% # Number of instructions issued per FU type, per thread (Count)
system.cpu.statIssuedInstType_0::FloatMisc        35076      0.07%     66.97% # Number of instructions issued per FU type, per thread (Count)
system.cpu.statIssuedInstType_0::FloatSqrt         1368      0.00%     66.98% # Number of instructions issued per FU type, per thread (Count)
system.cpu.statIssuedInstType_0::SimdAdd            0      0.00%     66.98% # Number of instructions issued per FU type, per thread (Count)
system.cpu.statIssuedInstType_0::SimdAddAcc            0      0.00%     66.98% # Number of instructions issued per FU type, per thread (Count)
system.cpu.statIssuedInstType_0::SimdAlu            0      0.00%     66.98% # Number of instructions issued per FU type, per thread (Count)
system.cpu.statIssuedInstType_0::SimdCmp            0      0.00%     66.98% # Number of instructions issued per FU type, per thread (Count)
system.cpu.statIssuedInstType_0::SimdCvt            0      0.00%     66.98% # Number of instructions issued per FU type, per thread (Count)
system.cpu.statIssuedInstType_0::SimdMisc            0      0.00%     66.98% # Number of instructions issued per FU type, per thread (Count)
system.cpu.statIssuedInstType_0::SimdMult            0      0.00%     66.98% # Number of instructions issued per FU type, per thread (Count)
system.cpu.statIssuedInstType_0::SimdMultAcc            0      0.00%     66.98% # Number of instructions issued per FU type, per thread (Count)
system.cpu.statIssuedInstType_0::SimdShift            0      0.00%     66.98% # Number of instructions issued per FU type, per thread (Count)
system.cpu.statIssuedInstType_0::SimdShiftAcc            0      0.00%     66.98% # Number of instructions issued per FU type, per thread (Count)
system.cpu.statIssuedInstType_0::SimdDiv            0      0.00%     66.98% # Number of instructions issued per FU type, per thread (Count)
system.cpu.statIssuedInstType_0::SimdSqrt            0      0.00%     66.98% # Number of instructions issued per FU type, per thread (Count)
system.cpu.statIssuedInstType_0::SimdFloatAdd            0      0.00%     66.98% # Number of instructions issued per FU type, per thread (Count)
system.cpu.statIssuedInstType_0::SimdFloatAlu            0      0.00%     66.98% # Number of instructions issued per FU type, per thread (Count)
system.cpu.statIssuedInstType_0::SimdFloatCmp            0      0.00%     66.98% # Number of instructions issued per FU type, per thread (Count)
system.cpu.statIssuedInstType_0::SimdFloatCvt            0      0.00%     66.98% # Number of instructions issued per FU type, per thread (Count)
system.cpu.statIssuedInstType_0::SimdFloatDiv            0      0.00%     66.98% # Number of instructions issued per FU type, per thread (Count)
system.cpu.statIssuedInstType_0::SimdFloatMisc            0      0.00%     66.98% # Number of instructions issued per FU type, per thread (Count)
system.cpu.statIssuedInstType_0::SimdFloatMult            0      0.00%     66.98% # Number of instructions issued per FU type, per thread (Count)
system.cpu.statIssuedInstType_0::SimdFloatMultAcc            0      0.00%     66.98% # Number of instructions issued per FU type, per thread (Count)
system.cpu.statIssuedInstType_0::SimdFloatSqrt            0      0.00%     66.98% # Number of instructions issued per FU type, per thread (Count)
system.cpu.statIssuedInstType_0::SimdReduceAdd            0      0.00%     66.98% # Number of instructions issued per FU type, per thread (Count)
system.cpu.statIssuedInstType_0::SimdReduceAlu            0      0.00%     66.98% # Number of instructions issued per FU type, per thread (Count)
system.cpu.statIssuedInstType_0::SimdReduceCmp            0      0.00%     66.98% # Number of instructions issued per FU type, per thread (Count)
system.cpu.statIssuedInstType_0::SimdFloatReduceAdd            0      0.00%     66.98% # Number of instructions issued per FU type, per thread (Count)
system.cpu.statIssuedInstType_0::SimdFloatReduceCmp            0      0.00%     66.98% # Number of instructions issued per FU type, per thread (Count)
system.cpu.statIssuedInstType_0::SimdAes            0      0.00%     66.98% # Number of instructions issued per FU type, per thread (Count)
system.cpu.statIssuedInstType_0::SimdAesMix            0      0.00%     66.98% # Number of instructions issued per FU type, per thread (Count)
system.cpu.statIssuedInstType_0::SimdSha1Hash            0      0.00%     66.98% # Number of instructions issued per FU type, per thread (Count)
system.cpu.statIssuedInstType_0::SimdSha1Hash2            0      0.00%     66.98% # Number of instructions issued per FU type, per thread (Count)
system.cpu.statIssuedInstType_0::SimdSha256Hash            0      0.00%     66.98% # Number of instructions issued per FU type, per thread (Count)
system.cpu.statIssuedInstType_0::SimdSha256Hash2            0      0.00%     66.98% # Number of instructions issued per FU type, per thread (Count)
system.cpu.statIssuedInstType_0::SimdShaSigma2            0      0.00%     66.98% # Number of instructions issued per FU type, per thread (Count)
system.cpu.statIssuedInstType_0::SimdShaSigma3            0      0.00%     66.98% # Number of instructions issued per FU type, per thread (Count)
system.cpu.statIssuedInstType_0::SimdPredAlu            0      0.00%     66.98% # Number of instructions issued per FU type, per thread (Count)
system.cpu.statIssuedInstType_0::MemRead      4693540      9.35%     76.32% # Number of instructions issued per FU type, per thread (Count)
system.cpu.statIssuedInstType_0::MemWrite      1071956      2.13%     78.46% # Number of instructions issued per FU type, per thread (Count)
system.cpu.statIssuedInstType_0::FloatMemRead      6825328     13.59%     92.05% # Number of instructions issued per FU type, per thread (Count)
system.cpu.statIssuedInstType_0::FloatMemWrite      3990713      7.95%    100.00% # Number of instructions issued per FU type, per thread (Count)
system.cpu.statIssuedInstType_0::IprAccess            0      0.00%    100.00% # Number of instructions issued per FU type, per thread (Count)
system.cpu.statIssuedInstType_0::InstPrefetch            0      0.00%    100.00% # Number of instructions issued per FU type, per thread (Count)
system.cpu.statIssuedInstType_0::total       50211828                       # Number of instructions issued per FU type, per thread (Count)
system.cpu.issueRate                         2.018364                       # Inst issue rate ((Count/Cycle))
system.cpu.fuBusy                             1126397                       # FU busy when requested (Count)
system.cpu.fuBusyRate                        0.022433                       # FU busy rate (busy events/executed inst) ((Count/Count))
system.cpu.intInstQueueReads                 97503810                       # Number of integer instruction queue reads (Count)
system.cpu.intInstQueueWrites                36254197                       # Number of integer instruction queue writes (Count)
system.cpu.intInstQueueWakeupAccesses        35974396                       # Number of integer instruction queue wakeup accesses (Count)
system.cpu.fpInstQueueReads                  28909264                       # Number of floating instruction queue reads (Count)
system.cpu.fpInstQueueWrites                 14156969                       # Number of floating instruction queue writes (Count)
system.cpu.fpInstQueueWakeupAccesses         14131294                       # Number of floating instruction queue wakeup accesses (Count)
system.cpu.vecInstQueueReads                        0                       # Number of vector instruction queue reads (Count)
system.cpu.vecInstQueueWrites                       0                       # Number of vector instruction queue writes (Count)
system.cpu.vecInstQueueWakeupAccesses               0                       # Number of vector instruction queue wakeup accesses (Count)
system.cpu.intAluAccesses                    36614488                       # Number of integer alu accesses (Count)
system.cpu.fpAluAccesses                     14720962                       # Number of floating point alu accesses (Count)
system.cpu.vecAluAccesses                           0                       # Number of vector alu accesses (Count)
system.cpu.numInsts                          50116771                       # Number of executed instructions (Count)
system.cpu.numLoadInsts                      11454269                       # Number of load instructions executed (Count)
system.cpu.numSquashedInsts                     14357                       # Number of squashed instructions skipped in execute (Count)
system.cpu.numSwp                                   0                       # Number of swp insts executed (Count)
system.cpu.numNop                                   0                       # Number of nop insts executed (Count)
system.cpu.numRefs                           16493314                       # Number of memory reference insts executed (Count)
system.cpu.numBranches                        6183461                       # Number of branches executed (Count)
system.cpu.numStoreInsts                      5039045                       # Number of stores executed (Count)
system.cpu.numRate                           2.014543                       # Inst execution rate ((Count/Cycle))
system.cpu.timesIdled                             203                       # Number of times that the entire CPU went into an idle state and unscheduled itself (Count)
system.cpu.idleCycles                           19357                       # Total number of cycles that the CPU has spent unscheduled due to idling (Cycle)
system.cpu.committedInsts                    50000002                       # Number of Instructions Simulated (Count)
system.cpu.committedOps                      50000002                       # Number of Ops (including micro ops) Simulated (Count)
system.cpu.cpi                               0.497550                       # CPI: Cycles Per Instruction ((Cycle/Count))
system.cpu.totalCpi                          0.497550                       # CPI: Total CPI of All Threads ((Cycle/Count))
system.cpu.ipc                               2.009850                       # IPC: Instructions Per Cycle ((Count/Cycle))
system.cpu.totalIpc                          2.009850                       # IPC: Total IPC of All Threads ((Count/Cycle))
system.cpu.intRegfileReads                   57018040                       # Number of integer regfile reads (Count)
system.cpu.intRegfileWrites                  29312596                       # Number of integer regfile writes (Count)
system.cpu.fpRegfileReads                    12767564                       # Number of floating regfile reads (Count)
system.cpu.fpRegfileWrites                   10157955                       # Number of floating regfile writes (Count)
system.cpu.miscRegfileReads                 395353899                       # number of misc regfile reads (Count)
system.cpu.miscRegfileWrites                 10153033                       # number of misc regfile writes (Count)
system.cpu.lastCommitTick                 12438741500                       # The last tick to commit an instruction (Count)
system.cpu.MemDepUnit__0.insertedLoads       11479699                       # Number of loads inserted to the mem dependence unit. (Count)
system.cpu.MemDepUnit__0.insertedStores       5050755                       # Number of stores inserted to the mem dependence unit. (Count)
system.cpu.MemDepUnit__0.conflictingLoads      1844666                       # Number of conflicting loads. (Count)
system.cpu.MemDepUnit__0.conflictingStores      2997768                       # Number of conflicting stores. (Count)
system.cpu.MemDepUnit__1.insertedLoads              0                       # Number of loads inserted to the mem dependence unit. (Count)
system.cpu.MemDepUnit__1.insertedStores             0                       # Number of stores inserted to the mem dependence unit. (Count)
system.cpu.MemDepUnit__1.conflictingLoads            0                       # Number of conflicting loads. (Count)
system.cpu.MemDepUnit__1.conflictingStores            0                       # Number of conflicting stores. (Count)
system.cpu.MemDepUnit__2.insertedLoads              0                       # Number of loads inserted to the mem dependence unit. (Count)
system.cpu.MemDepUnit__2.insertedStores             0                       # Number of stores inserted to the mem dependence unit. (Count)
system.cpu.MemDepUnit__2.conflictingLoads            0                       # Number of conflicting loads. (Count)
system.cpu.MemDepUnit__2.conflictingStores            0                       # Number of conflicting stores. (Count)
system.cpu.MemDepUnit__3.insertedLoads              0                       # Number of loads inserted to the mem dependence unit. (Count)
system.cpu.MemDepUnit__3.insertedStores             0                       # Number of stores inserted to the mem dependence unit. (Count)
system.cpu.MemDepUnit__3.conflictingLoads            0                       # Number of conflicting loads. (Count)
system.cpu.MemDepUnit__3.conflictingStores            0                       # Number of conflicting stores. (Count)
system.cpu.branchPred.lookups                       0                       # Number of BP lookups (Count)
system.cpu.branchPred.condPredicted                 0                       # Number of conditional branches predicted (Count)
system.cpu.branchPred.condIncorrect              5046                       # Number of conditional branches incorrect (Count)
system.cpu.branchPred.BTBLookups                    0                       # Number of BTB lookups (Count)
system.cpu.branchPred.BTBHits                       0                       # Number of BTB hits (Count)
system.cpu.branchPred.BTBHitRatio                 nan                       # BTB Hit Ratio (Ratio)
system.cpu.branchPred.RASUsed                       0                       # Number of times the RAS was used to get a target. (Count)
system.cpu.branchPred.RASIncorrect               1596                       # Number of incorrect RAS predictions. (Count)
system.cpu.branchPred.indirectLookups               0                       # Number of indirect predictor lookups. (Count)
system.cpu.branchPred.indirectHits                  0                       # Number of indirect target hits. (Count)
system.cpu.branchPred.indirectMisses                0                       # Number of indirect misses. (Count)
system.cpu.branchPred.indirectMispredicted         1695                       # Number of mispredicted indirect branches. (Count)
system.cpu.branchPred.stream_tage.coldMisses            0                       # ittage the provider component lookup hit (Count)
system.cpu.branchPred.stream_tage.capacityMisses            0                       # ittage the alternate prediction lookup hit (Count)
system.cpu.branchPred.stream_tage.compulsoryMisses            0                       # ittage the provider component pred hit (Count)
system.cpu.branchPred.stream_tage.providerTableDist::samples     11841782                       # the distribution of provider component (Count)
system.cpu.branchPred.stream_tage.providerTableDist::mean     1.336828                       # the distribution of provider component (Count)
system.cpu.branchPred.stream_tage.providerTableDist::stdev     2.703176                       # the distribution of provider component (Count)
system.cpu.branchPred.stream_tage.providerTableDist::underflows            0      0.00%      0.00% # the distribution of provider component (Count)
system.cpu.branchPred.stream_tage.providerTableDist::0      6895822     58.23%     58.23% # the distribution of provider component (Count)
system.cpu.branchPred.stream_tage.providerTableDist::1      1832618     15.48%     73.71% # the distribution of provider component (Count)
system.cpu.branchPred.stream_tage.providerTableDist::2      1621187     13.69%     87.40% # the distribution of provider component (Count)
system.cpu.branchPred.stream_tage.providerTableDist::3       381461      3.22%     90.62% # the distribution of provider component (Count)
system.cpu.branchPred.stream_tage.providerTableDist::4        81505      0.69%     91.31% # the distribution of provider component (Count)
system.cpu.branchPred.stream_tage.providerTableDist::5       244335      2.06%     93.37% # the distribution of provider component (Count)
system.cpu.branchPred.stream_tage.providerTableDist::6        67962      0.57%     93.95% # the distribution of provider component (Count)
system.cpu.branchPred.stream_tage.providerTableDist::7        93991      0.79%     94.74% # the distribution of provider component (Count)
system.cpu.branchPred.stream_tage.providerTableDist::8        73256      0.62%     95.36% # the distribution of provider component (Count)
system.cpu.branchPred.stream_tage.providerTableDist::9        91137      0.77%     96.13% # the distribution of provider component (Count)
system.cpu.branchPred.stream_tage.providerTableDist::10        96615      0.82%     96.94% # the distribution of provider component (Count)
system.cpu.branchPred.stream_tage.providerTableDist::11        62299      0.53%     97.47% # the distribution of provider component (Count)
system.cpu.branchPred.stream_tage.providerTableDist::12       135488      1.14%     98.61% # the distribution of provider component (Count)
system.cpu.branchPred.stream_tage.providerTableDist::13        25473      0.22%     98.83% # the distribution of provider component (Count)
system.cpu.branchPred.stream_tage.providerTableDist::14        96572      0.82%     99.64% # the distribution of provider component (Count)
system.cpu.branchPred.stream_tage.providerTableDist::15        42061      0.36%    100.00% # the distribution of provider component (Count)
system.cpu.branchPred.stream_tage.providerTableDist::16            0      0.00%    100.00% # the distribution of provider component (Count)
system.cpu.branchPred.stream_tage.providerTableDist::17            0      0.00%    100.00% # the distribution of provider component (Count)
system.cpu.branchPred.stream_tage.providerTableDist::18            0      0.00%    100.00% # the distribution of provider component (Count)
system.cpu.branchPred.stream_tage.providerTableDist::19            0      0.00%    100.00% # the distribution of provider component (Count)
system.cpu.branchPred.stream_tage.providerTableDist::20            0      0.00%    100.00% # the distribution of provider component (Count)
system.cpu.branchPred.stream_tage.providerTableDist::21            0      0.00%    100.00% # the distribution of provider component (Count)
system.cpu.branchPred.stream_tage.providerTableDist::overflows            0      0.00%    100.00% # the distribution of provider component (Count)
system.cpu.branchPred.stream_tage.providerTableDist::min_value            0                       # the distribution of provider component (Count)
system.cpu.branchPred.stream_tage.providerTableDist::max_value           15                       # the distribution of provider component (Count)
system.cpu.branchPred.stream_tage.providerTableDist::total     11841782                       # the distribution of provider component (Count)
system.cpu.commit.commitSquashedInsts          205840                       # The number of squashed insts skipped by commit (Count)
system.cpu.commit.commitNonSpecStalls            2769                       # The number of times commit has been forced to stall to communicate backwards (Count)
system.cpu.commit.branchMispredicts              6721                       # The number of times a branch was mispredicted (Count)
system.cpu.commit.numCommittedDist::samples     24825232                       # Number of insts commited each cycle (Count)
system.cpu.commit.numCommittedDist::mean     2.014080                       # Number of insts commited each cycle (Count)
system.cpu.commit.numCommittedDist::stdev     3.185541                       # Number of insts commited each cycle (Count)
system.cpu.commit.numCommittedDist::underflows            0      0.00%      0.00% # Number of insts commited each cycle (Count)
system.cpu.commit.numCommittedDist::0        15457298     62.26%     62.26% # Number of insts commited each cycle (Count)
system.cpu.commit.numCommittedDist::1         2481312     10.00%     72.26% # Number of insts commited each cycle (Count)
system.cpu.commit.numCommittedDist::2          407952      1.64%     73.90% # Number of insts commited each cycle (Count)
system.cpu.commit.numCommittedDist::3          194648      0.78%     74.69% # Number of insts commited each cycle (Count)
system.cpu.commit.numCommittedDist::4          216922      0.87%     75.56% # Number of insts commited each cycle (Count)
system.cpu.commit.numCommittedDist::5          371077      1.49%     77.06% # Number of insts commited each cycle (Count)
system.cpu.commit.numCommittedDist::6         1025222      4.13%     81.19% # Number of insts commited each cycle (Count)
system.cpu.commit.numCommittedDist::7          121971      0.49%     81.68% # Number of insts commited each cycle (Count)
system.cpu.commit.numCommittedDist::8         4548830     18.32%    100.00% # Number of insts commited each cycle (Count)
system.cpu.commit.numCommittedDist::overflows            0      0.00%    100.00% # Number of insts commited each cycle (Count)
system.cpu.commit.numCommittedDist::min_value            0                       # Number of insts commited each cycle (Count)
system.cpu.commit.numCommittedDist::max_value            8                       # Number of insts commited each cycle (Count)
system.cpu.commit.numCommittedDist::total     24825232                       # Number of insts commited each cycle (Count)
system.cpu.commit.instsCommitted             50000002                       # Number of instructions committed (Count)
system.cpu.commit.opsCommitted               50000002                       # Number of ops (including micro ops) committed (Count)
system.cpu.commit.memRefs                    16444039                       # Number of memory references committed (Count)
system.cpu.commit.loads                      11416116                       # Number of loads committed (Count)
system.cpu.commit.amos                              0                       # Number of atomic instructions committed (Count)
system.cpu.commit.membars                           0                       # Number of memory barriers committed (Count)
system.cpu.commit.branches                    6159799                       # Number of branches committed (Count)
system.cpu.commit.vectorInstructions                0                       # Number of committed Vector instructions. (Count)
system.cpu.commit.floating                   14123845                       # Number of committed floating point instructions. (Count)
system.cpu.commit.integer                    46271569                       # Number of committed integer instructions. (Count)
system.cpu.commit.functionCalls                581760                       # Number of function calls committed. (Count)
system.cpu.commit.committedInstType_0::No_OpClass         2768      0.01%      0.01% # Class of committed instruction (Count)
system.cpu.commit.committedInstType_0::IntAlu     29558211     59.12%     59.12% # Class of committed instruction (Count)
system.cpu.commit.committedInstType_0::IntMult       625234      1.25%     60.37% # Class of committed instruction (Count)
system.cpu.commit.committedInstType_0::IntDiv            0      0.00%     60.37% # Class of committed instruction (Count)
system.cpu.commit.committedInstType_0::FloatAdd       296379      0.59%     60.97% # Class of committed instruction (Count)
system.cpu.commit.committedInstType_0::FloatCmp         1368      0.00%     60.97% # Class of committed instruction (Count)
system.cpu.commit.committedInstType_0::FloatCvt       192093      0.38%     61.35% # Class of committed instruction (Count)
system.cpu.commit.committedInstType_0::FloatMult       414132      0.83%     62.18% # Class of committed instruction (Count)
system.cpu.commit.committedInstType_0::FloatMultAcc      2419398      4.84%     67.02% # Class of committed instruction (Count)
system.cpu.commit.committedInstType_0::FloatDiv         9945      0.02%     67.04% # Class of committed instruction (Count)
system.cpu.commit.committedInstType_0::FloatMisc        35067      0.07%     67.11% # Class of committed instruction (Count)
system.cpu.commit.committedInstType_0::FloatSqrt         1368      0.00%     67.11% # Class of committed instruction (Count)
system.cpu.commit.committedInstType_0::SimdAdd            0      0.00%     67.11% # Class of committed instruction (Count)
system.cpu.commit.committedInstType_0::SimdAddAcc            0      0.00%     67.11% # Class of committed instruction (Count)
system.cpu.commit.committedInstType_0::SimdAlu            0      0.00%     67.11% # Class of committed instruction (Count)
system.cpu.commit.committedInstType_0::SimdCmp            0      0.00%     67.11% # Class of committed instruction (Count)
system.cpu.commit.committedInstType_0::SimdCvt            0      0.00%     67.11% # Class of committed instruction (Count)
system.cpu.commit.committedInstType_0::SimdMisc            0      0.00%     67.11% # Class of committed instruction (Count)
system.cpu.commit.committedInstType_0::SimdMult            0      0.00%     67.11% # Class of committed instruction (Count)
system.cpu.commit.committedInstType_0::SimdMultAcc            0      0.00%     67.11% # Class of committed instruction (Count)
system.cpu.commit.committedInstType_0::SimdShift            0      0.00%     67.11% # Class of committed instruction (Count)
system.cpu.commit.committedInstType_0::SimdShiftAcc            0      0.00%     67.11% # Class of committed instruction (Count)
system.cpu.commit.committedInstType_0::SimdDiv            0      0.00%     67.11% # Class of committed instruction (Count)
system.cpu.commit.committedInstType_0::SimdSqrt            0      0.00%     67.11% # Class of committed instruction (Count)
system.cpu.commit.committedInstType_0::SimdFloatAdd            0      0.00%     67.11% # Class of committed instruction (Count)
system.cpu.commit.committedInstType_0::SimdFloatAlu            0      0.00%     67.11% # Class of committed instruction (Count)
system.cpu.commit.committedInstType_0::SimdFloatCmp            0      0.00%     67.11% # Class of committed instruction (Count)
system.cpu.commit.committedInstType_0::SimdFloatCvt            0      0.00%     67.11% # Class of committed instruction (Count)
system.cpu.commit.committedInstType_0::SimdFloatDiv            0      0.00%     67.11% # Class of committed instruction (Count)
system.cpu.commit.committedInstType_0::SimdFloatMisc            0      0.00%     67.11% # Class of committed instruction (Count)
system.cpu.commit.committedInstType_0::SimdFloatMult            0      0.00%     67.11% # Class of committed instruction (Count)
system.cpu.commit.committedInstType_0::SimdFloatMultAcc            0      0.00%     67.11% # Class of committed instruction (Count)
system.cpu.commit.committedInstType_0::SimdFloatSqrt            0      0.00%     67.11% # Class of committed instruction (Count)
system.cpu.commit.committedInstType_0::SimdReduceAdd            0      0.00%     67.11% # Class of committed instruction (Count)
system.cpu.commit.committedInstType_0::SimdReduceAlu            0      0.00%     67.11% # Class of committed instruction (Count)
system.cpu.commit.committedInstType_0::SimdReduceCmp            0      0.00%     67.11% # Class of committed instruction (Count)
system.cpu.commit.committedInstType_0::SimdFloatReduceAdd            0      0.00%     67.11% # Class of committed instruction (Count)
system.cpu.commit.committedInstType_0::SimdFloatReduceCmp            0      0.00%     67.11% # Class of committed instruction (Count)
system.cpu.commit.committedInstType_0::SimdAes            0      0.00%     67.11% # Class of committed instruction (Count)
system.cpu.commit.committedInstType_0::SimdAesMix            0      0.00%     67.11% # Class of committed instruction (Count)
system.cpu.commit.committedInstType_0::SimdSha1Hash            0      0.00%     67.11% # Class of committed instruction (Count)
system.cpu.commit.committedInstType_0::SimdSha1Hash2            0      0.00%     67.11% # Class of committed instruction (Count)
system.cpu.commit.committedInstType_0::SimdSha256Hash            0      0.00%     67.11% # Class of committed instruction (Count)
system.cpu.commit.committedInstType_0::SimdSha256Hash2            0      0.00%     67.11% # Class of committed instruction (Count)
system.cpu.commit.committedInstType_0::SimdShaSigma2            0      0.00%     67.11% # Class of committed instruction (Count)
system.cpu.commit.committedInstType_0::SimdShaSigma3            0      0.00%     67.11% # Class of committed instruction (Count)
system.cpu.commit.committedInstType_0::SimdPredAlu            0      0.00%     67.11% # Class of committed instruction (Count)
system.cpu.commit.committedInstType_0::MemRead      4632859      9.27%     76.38% # Class of committed instruction (Count)
system.cpu.commit.committedInstType_0::MemWrite      1057085      2.11%     78.49% # Class of committed instruction (Count)
system.cpu.commit.committedInstType_0::FloatMemRead      6783257     13.57%     92.06% # Class of committed instruction (Count)
system.cpu.commit.committedInstType_0::FloatMemWrite      3970838      7.94%    100.00% # Class of committed instruction (Count)
system.cpu.commit.committedInstType_0::IprAccess            0      0.00%    100.00% # Class of committed instruction (Count)
system.cpu.commit.committedInstType_0::InstPrefetch            0      0.00%    100.00% # Class of committed instruction (Count)
system.cpu.commit.committedInstType_0::total     50000002                       # Class of committed instruction (Count)
system.cpu.commit.commitEligibleSamples       4548830                       # number cycles where commit BW limit reached (Cycle)
system.cpu.dcache.demandHits::cpu.data       14523811                       # number of demand (read+write) hits (Count)
system.cpu.dcache.demandHits::total          14523811                       # number of demand (read+write) hits (Count)
system.cpu.dcache.overallHits::cpu.data      14523811                       # number of overall hits (Count)
system.cpu.dcache.overallHits::total         14523811                       # number of overall hits (Count)
system.cpu.dcache.demandMisses::cpu.data      1032170                       # number of demand (read+write) misses (Count)
system.cpu.dcache.demandMisses::total         1032170                       # number of demand (read+write) misses (Count)
system.cpu.dcache.overallMisses::cpu.data      1032170                       # number of overall misses (Count)
system.cpu.dcache.overallMisses::total        1032170                       # number of overall misses (Count)
system.cpu.dcache.demandMissLatency::cpu.data  34760835986                       # number of demand (read+write) miss ticks (Tick)
system.cpu.dcache.demandMissLatency::total  34760835986                       # number of demand (read+write) miss ticks (Tick)
system.cpu.dcache.overallMissLatency::cpu.data  34760835986                       # number of overall miss ticks (Tick)
system.cpu.dcache.overallMissLatency::total  34760835986                       # number of overall miss ticks (Tick)
system.cpu.dcache.demandAccesses::cpu.data     15555981                       # number of demand (read+write) accesses (Count)
system.cpu.dcache.demandAccesses::total      15555981                       # number of demand (read+write) accesses (Count)
system.cpu.dcache.overallAccesses::cpu.data     15555981                       # number of overall (read+write) accesses (Count)
system.cpu.dcache.overallAccesses::total     15555981                       # number of overall (read+write) accesses (Count)
system.cpu.dcache.demandMissRate::cpu.data     0.066352                       # miss rate for demand accesses (Ratio)
system.cpu.dcache.demandMissRate::total      0.066352                       # miss rate for demand accesses (Ratio)
system.cpu.dcache.overallMissRate::cpu.data     0.066352                       # miss rate for overall accesses (Ratio)
system.cpu.dcache.overallMissRate::total     0.066352                       # miss rate for overall accesses (Ratio)
system.cpu.dcache.demandAvgMissLatency::cpu.data 33677.432967                       # average overall miss latency in ticks ((Tick/Count))
system.cpu.dcache.demandAvgMissLatency::total 33677.432967                       # average overall miss latency in ticks ((Tick/Count))
system.cpu.dcache.overallAvgMissLatency::cpu.data 33677.432967                       # average overall miss latency ((Tick/Count))
system.cpu.dcache.overallAvgMissLatency::total 33677.432967                       # average overall miss latency ((Tick/Count))
system.cpu.dcache.blockedCycles::no_mshrs            4                       # number of cycles access was blocked (Cycle)
system.cpu.dcache.blockedCycles::no_targets           41                       # number of cycles access was blocked (Cycle)
system.cpu.dcache.blockedCauses::no_mshrs            1                       # number of times access was blocked (Count)
system.cpu.dcache.blockedCauses::no_targets            2                       # number of times access was blocked (Count)
system.cpu.dcache.avgBlocked::no_mshrs              4                       # average number of cycles each access was blocked ((Cycle/Count))
system.cpu.dcache.avgBlocked::no_targets    20.500000                       # average number of cycles each access was blocked ((Cycle/Count))
system.cpu.dcache.writebacks::writebacks       107810                       # number of writebacks (Count)
system.cpu.dcache.writebacks::total            107810                       # number of writebacks (Count)
system.cpu.dcache.demandMshrHits::cpu.data       833468                       # number of demand (read+write) MSHR hits (Count)
system.cpu.dcache.demandMshrHits::total        833468                       # number of demand (read+write) MSHR hits (Count)
system.cpu.dcache.overallMshrHits::cpu.data       833468                       # number of overall MSHR hits (Count)
system.cpu.dcache.overallMshrHits::total       833468                       # number of overall MSHR hits (Count)
system.cpu.dcache.demandMshrMisses::cpu.data       198702                       # number of demand (read+write) MSHR misses (Count)
system.cpu.dcache.demandMshrMisses::total       198702                       # number of demand (read+write) MSHR misses (Count)
system.cpu.dcache.overallMshrMisses::cpu.data       198702                       # number of overall MSHR misses (Count)
system.cpu.dcache.overallMshrMisses::total       198702                       # number of overall MSHR misses (Count)
system.cpu.dcache.overallMshrUncacheable::cpu.data            2                       # number of overall MSHR uncacheable misses (Count)
system.cpu.dcache.overallMshrUncacheable::total            2                       # number of overall MSHR uncacheable misses (Count)
system.cpu.dcache.demandMshrMissLatency::cpu.data   6020320998                       # number of demand (read+write) MSHR miss ticks (Tick)
system.cpu.dcache.demandMshrMissLatency::total   6020320998                       # number of demand (read+write) MSHR miss ticks (Tick)
system.cpu.dcache.overallMshrMissLatency::cpu.data   6020320998                       # number of overall MSHR miss ticks (Tick)
system.cpu.dcache.overallMshrMissLatency::total   6020320998                       # number of overall MSHR miss ticks (Tick)
system.cpu.dcache.demandMshrMissRate::cpu.data     0.012773                       # mshr miss ratio for demand accesses (Ratio)
system.cpu.dcache.demandMshrMissRate::total     0.012773                       # mshr miss ratio for demand accesses (Ratio)
system.cpu.dcache.overallMshrMissRate::cpu.data     0.012773                       # mshr miss ratio for overall accesses (Ratio)
system.cpu.dcache.overallMshrMissRate::total     0.012773                       # mshr miss ratio for overall accesses (Ratio)
system.cpu.dcache.demandAvgMshrMissLatency::cpu.data 30298.240571                       # average overall mshr miss latency ((Tick/Count))
system.cpu.dcache.demandAvgMshrMissLatency::total 30298.240571                       # average overall mshr miss latency ((Tick/Count))
system.cpu.dcache.overallAvgMshrMissLatency::cpu.data 30298.240571                       # average overall mshr miss latency ((Tick/Count))
system.cpu.dcache.overallAvgMshrMissLatency::total 30298.240571                       # average overall mshr miss latency ((Tick/Count))
system.cpu.dcache.replacements                 196654                       # number of replacements (Count)
system.cpu.dcache.ReadReq.hits::cpu.data      9743350                       # number of ReadReq hits (Count)
system.cpu.dcache.ReadReq.hits::total         9743350                       # number of ReadReq hits (Count)
system.cpu.dcache.ReadReq.misses::cpu.data       784712                       # number of ReadReq misses (Count)
system.cpu.dcache.ReadReq.misses::total        784712                       # number of ReadReq misses (Count)
system.cpu.dcache.ReadReq.missLatency::cpu.data  32832387500                       # number of ReadReq miss ticks (Tick)
system.cpu.dcache.ReadReq.missLatency::total  32832387500                       # number of ReadReq miss ticks (Tick)
system.cpu.dcache.ReadReq.accesses::cpu.data     10528062                       # number of ReadReq accesses(hits+misses) (Count)
system.cpu.dcache.ReadReq.accesses::total     10528062                       # number of ReadReq accesses(hits+misses) (Count)
system.cpu.dcache.ReadReq.missRate::cpu.data     0.074535                       # miss rate for ReadReq accesses (Ratio)
system.cpu.dcache.ReadReq.missRate::total     0.074535                       # miss rate for ReadReq accesses (Ratio)
system.cpu.dcache.ReadReq.avgMissLatency::cpu.data 41840.047686                       # average ReadReq miss latency ((Tick/Count))
system.cpu.dcache.ReadReq.avgMissLatency::total 41840.047686                       # average ReadReq miss latency ((Tick/Count))
system.cpu.dcache.ReadReq.mshrHits::cpu.data       660581                       # number of ReadReq MSHR hits (Count)
system.cpu.dcache.ReadReq.mshrHits::total       660581                       # number of ReadReq MSHR hits (Count)
system.cpu.dcache.ReadReq.mshrMisses::cpu.data       124131                       # number of ReadReq MSHR misses (Count)
system.cpu.dcache.ReadReq.mshrMisses::total       124131                       # number of ReadReq MSHR misses (Count)
system.cpu.dcache.ReadReq.mshrMissLatency::cpu.data   5499256500                       # number of ReadReq MSHR miss ticks (Tick)
system.cpu.dcache.ReadReq.mshrMissLatency::total   5499256500                       # number of ReadReq MSHR miss ticks (Tick)
system.cpu.dcache.ReadReq.mshrMissRate::cpu.data     0.011790                       # mshr miss rate for ReadReq accesses (Ratio)
system.cpu.dcache.ReadReq.mshrMissRate::total     0.011790                       # mshr miss rate for ReadReq accesses (Ratio)
system.cpu.dcache.ReadReq.avgMshrMissLatency::cpu.data 44302.039781                       # average ReadReq mshr miss latency ((Tick/Count))
system.cpu.dcache.ReadReq.avgMshrMissLatency::total 44302.039781                       # average ReadReq mshr miss latency ((Tick/Count))
system.cpu.dcache.WriteReq.hits::cpu.data      4780461                       # number of WriteReq hits (Count)
system.cpu.dcache.WriteReq.hits::total        4780461                       # number of WriteReq hits (Count)
system.cpu.dcache.WriteReq.misses::cpu.data       247458                       # number of WriteReq misses (Count)
system.cpu.dcache.WriteReq.misses::total       247458                       # number of WriteReq misses (Count)
system.cpu.dcache.WriteReq.missLatency::cpu.data   1928448486                       # number of WriteReq miss ticks (Tick)
system.cpu.dcache.WriteReq.missLatency::total   1928448486                       # number of WriteReq miss ticks (Tick)
system.cpu.dcache.WriteReq.accesses::cpu.data      5027919                       # number of WriteReq accesses(hits+misses) (Count)
system.cpu.dcache.WriteReq.accesses::total      5027919                       # number of WriteReq accesses(hits+misses) (Count)
system.cpu.dcache.WriteReq.missRate::cpu.data     0.049217                       # miss rate for WriteReq accesses (Ratio)
system.cpu.dcache.WriteReq.missRate::total     0.049217                       # miss rate for WriteReq accesses (Ratio)
system.cpu.dcache.WriteReq.avgMissLatency::cpu.data  7793.033509                       # average WriteReq miss latency ((Tick/Count))
system.cpu.dcache.WriteReq.avgMissLatency::total  7793.033509                       # average WriteReq miss latency ((Tick/Count))
system.cpu.dcache.WriteReq.mshrHits::cpu.data       172887                       # number of WriteReq MSHR hits (Count)
system.cpu.dcache.WriteReq.mshrHits::total       172887                       # number of WriteReq MSHR hits (Count)
system.cpu.dcache.WriteReq.mshrMisses::cpu.data        74571                       # number of WriteReq MSHR misses (Count)
system.cpu.dcache.WriteReq.mshrMisses::total        74571                       # number of WriteReq MSHR misses (Count)
system.cpu.dcache.WriteReq.mshrUncacheable::cpu.data            2                       # number of WriteReq MSHR uncacheable (Count)
system.cpu.dcache.WriteReq.mshrUncacheable::total            2                       # number of WriteReq MSHR uncacheable (Count)
system.cpu.dcache.WriteReq.mshrMissLatency::cpu.data    521064498                       # number of WriteReq MSHR miss ticks (Tick)
system.cpu.dcache.WriteReq.mshrMissLatency::total    521064498                       # number of WriteReq MSHR miss ticks (Tick)
system.cpu.dcache.WriteReq.mshrMissRate::cpu.data     0.014831                       # mshr miss rate for WriteReq accesses (Ratio)
system.cpu.dcache.WriteReq.mshrMissRate::total     0.014831                       # mshr miss rate for WriteReq accesses (Ratio)
system.cpu.dcache.WriteReq.avgMshrMissLatency::cpu.data  6987.495112                       # average WriteReq mshr miss latency ((Tick/Count))
system.cpu.dcache.WriteReq.avgMshrMissLatency::total  6987.495112                       # average WriteReq mshr miss latency ((Tick/Count))
system.cpu.dcache.power_state.pwrStateResidencyTicks::UNDEFINED  12438741500                       # Cumulative time (in ticks) in various power states (Tick)
system.cpu.dcache.tags.tagsInUse          2027.614856                       # Average ticks per tags in use ((Tick/Count))
system.cpu.dcache.tags.totalRefs             13083442                       # Total number of references to valid blocks. (Count)
system.cpu.dcache.tags.sampledRefs             196654                       # Sample count of references to valid blocks. (Count)
system.cpu.dcache.tags.avgRefs              66.530261                       # Average number of references to valid blocks. ((Count/Count))
system.cpu.dcache.tags.warmupTick              153500                       # The tick when the warmup percentage was hit. (Tick)
system.cpu.dcache.tags.occupancies::cpu.data  2027.614856                       # Average occupied blocks per tick, per requestor ((Count/Tick))
system.cpu.dcache.tags.avgOccs::cpu.data     0.990046                       # Average percentage of cache occupancy ((Ratio/Tick))
system.cpu.dcache.tags.avgOccs::total        0.990046                       # Average percentage of cache occupancy ((Ratio/Tick))
system.cpu.dcache.tags.occupanciesTaskId::1024         2048                       # Occupied blocks per task id (Count)
system.cpu.dcache.tags.ageTaskId_1024::0          283                       # Occupied blocks per task id, per block age (Count)
system.cpu.dcache.tags.ageTaskId_1024::1         1571                       # Occupied blocks per task id, per block age (Count)
system.cpu.dcache.tags.ageTaskId_1024::2          178                       # Occupied blocks per task id, per block age (Count)
system.cpu.dcache.tags.ageTaskId_1024::4           16                       # Occupied blocks per task id, per block age (Count)
system.cpu.dcache.tags.ratioOccsTaskId::1024            1                       # Ratio of occupied blocks and all blocks, per task id (Ratio)
system.cpu.dcache.tags.tagAccesses          124646550                       # Number of tag accesses (Count)
system.cpu.dcache.tags.dataAccesses         124646550                       # Number of data accesses (Count)
system.cpu.dcache.tags.power_state.pwrStateResidencyTicks::UNDEFINED  12438741500                       # Cumulative time (in ticks) in various power states (Tick)
system.cpu.decode.idleCycles                  1050325                       # Number of cycles decode is idle (Cycle)
system.cpu.decode.blockedCycles              17072312                       # Number of cycles decode is blocked (Cycle)
system.cpu.decode.runCycles                   4305705                       # Number of cycles decode is running (Cycle)
system.cpu.decode.unblockCycles               2420919                       # Number of cycles decode is unblocking (Cycle)
system.cpu.decode.squashCycles                   8867                       # Number of cycles decode is squashing (Cycle)
system.cpu.decode.branchResolved              3756989                       # Number of times decode resolved a branch (Count)
system.cpu.decode.branchMispred                  1290                       # Number of times decode detected a branch misprediction (Count)
system.cpu.decode.decodedInsts               50306454                       # Number of instructions handled by decode (Count)
system.cpu.decode.squashedInsts                  7131                       # Number of squashed instructions handled by decode (Count)
system.cpu.dtb_walker_cache.demandHits::cpu.mmu.dtb.walker       213677                       # number of demand (read+write) hits (Count)
system.cpu.dtb_walker_cache.demandHits::total       213677                       # number of demand (read+write) hits (Count)
system.cpu.dtb_walker_cache.overallHits::cpu.mmu.dtb.walker       213677                       # number of overall hits (Count)
system.cpu.dtb_walker_cache.overallHits::total       213677                       # number of overall hits (Count)
system.cpu.dtb_walker_cache.demandMisses::cpu.mmu.dtb.walker        22851                       # number of demand (read+write) misses (Count)
system.cpu.dtb_walker_cache.demandMisses::total        22851                       # number of demand (read+write) misses (Count)
system.cpu.dtb_walker_cache.overallMisses::cpu.mmu.dtb.walker        22851                       # number of overall misses (Count)
system.cpu.dtb_walker_cache.overallMisses::total        22851                       # number of overall misses (Count)
system.cpu.dtb_walker_cache.demandMissLatency::cpu.mmu.dtb.walker   1453090000                       # number of demand (read+write) miss ticks (Tick)
system.cpu.dtb_walker_cache.demandMissLatency::total   1453090000                       # number of demand (read+write) miss ticks (Tick)
system.cpu.dtb_walker_cache.overallMissLatency::cpu.mmu.dtb.walker   1453090000                       # number of overall miss ticks (Tick)
system.cpu.dtb_walker_cache.overallMissLatency::total   1453090000                       # number of overall miss ticks (Tick)
system.cpu.dtb_walker_cache.demandAccesses::cpu.mmu.dtb.walker       236528                       # number of demand (read+write) accesses (Count)
system.cpu.dtb_walker_cache.demandAccesses::total       236528                       # number of demand (read+write) accesses (Count)
system.cpu.dtb_walker_cache.overallAccesses::cpu.mmu.dtb.walker       236528                       # number of overall (read+write) accesses (Count)
system.cpu.dtb_walker_cache.overallAccesses::total       236528                       # number of overall (read+write) accesses (Count)
system.cpu.dtb_walker_cache.demandMissRate::cpu.mmu.dtb.walker     0.096610                       # miss rate for demand accesses (Ratio)
system.cpu.dtb_walker_cache.demandMissRate::total     0.096610                       # miss rate for demand accesses (Ratio)
system.cpu.dtb_walker_cache.overallMissRate::cpu.mmu.dtb.walker     0.096610                       # miss rate for overall accesses (Ratio)
system.cpu.dtb_walker_cache.overallMissRate::total     0.096610                       # miss rate for overall accesses (Ratio)
system.cpu.dtb_walker_cache.demandAvgMissLatency::cpu.mmu.dtb.walker 63589.777253                       # average overall miss latency in ticks ((Tick/Count))
system.cpu.dtb_walker_cache.demandAvgMissLatency::total 63589.777253                       # average overall miss latency in ticks ((Tick/Count))
system.cpu.dtb_walker_cache.overallAvgMissLatency::cpu.mmu.dtb.walker 63589.777253                       # average overall miss latency ((Tick/Count))
system.cpu.dtb_walker_cache.overallAvgMissLatency::total 63589.777253                       # average overall miss latency ((Tick/Count))
system.cpu.dtb_walker_cache.blockedCycles::no_mshrs            0                       # number of cycles access was blocked (Cycle)
system.cpu.dtb_walker_cache.blockedCycles::no_targets            0                       # number of cycles access was blocked (Cycle)
system.cpu.dtb_walker_cache.blockedCauses::no_mshrs            0                       # number of times access was blocked (Count)
system.cpu.dtb_walker_cache.blockedCauses::no_targets            0                       # number of times access was blocked (Count)
system.cpu.dtb_walker_cache.avgBlocked::no_mshrs          nan                       # average number of cycles each access was blocked ((Cycle/Count))
system.cpu.dtb_walker_cache.avgBlocked::no_targets          nan                       # average number of cycles each access was blocked ((Cycle/Count))
system.cpu.dtb_walker_cache.demandMshrMisses::cpu.mmu.dtb.walker        22851                       # number of demand (read+write) MSHR misses (Count)
system.cpu.dtb_walker_cache.demandMshrMisses::total        22851                       # number of demand (read+write) MSHR misses (Count)
system.cpu.dtb_walker_cache.overallMshrMisses::cpu.mmu.dtb.walker        22851                       # number of overall MSHR misses (Count)
system.cpu.dtb_walker_cache.overallMshrMisses::total        22851                       # number of overall MSHR misses (Count)
system.cpu.dtb_walker_cache.demandMshrMissLatency::cpu.mmu.dtb.walker   1430239000                       # number of demand (read+write) MSHR miss ticks (Tick)
system.cpu.dtb_walker_cache.demandMshrMissLatency::total   1430239000                       # number of demand (read+write) MSHR miss ticks (Tick)
system.cpu.dtb_walker_cache.overallMshrMissLatency::cpu.mmu.dtb.walker   1430239000                       # number of overall MSHR miss ticks (Tick)
system.cpu.dtb_walker_cache.overallMshrMissLatency::total   1430239000                       # number of overall MSHR miss ticks (Tick)
system.cpu.dtb_walker_cache.demandMshrMissRate::cpu.mmu.dtb.walker     0.096610                       # mshr miss ratio for demand accesses (Ratio)
system.cpu.dtb_walker_cache.demandMshrMissRate::total     0.096610                       # mshr miss ratio for demand accesses (Ratio)
system.cpu.dtb_walker_cache.overallMshrMissRate::cpu.mmu.dtb.walker     0.096610                       # mshr miss ratio for overall accesses (Ratio)
system.cpu.dtb_walker_cache.overallMshrMissRate::total     0.096610                       # mshr miss ratio for overall accesses (Ratio)
system.cpu.dtb_walker_cache.demandAvgMshrMissLatency::cpu.mmu.dtb.walker 62589.777253                       # average overall mshr miss latency ((Tick/Count))
system.cpu.dtb_walker_cache.demandAvgMshrMissLatency::total 62589.777253                       # average overall mshr miss latency ((Tick/Count))
system.cpu.dtb_walker_cache.overallAvgMshrMissLatency::cpu.mmu.dtb.walker 62589.777253                       # average overall mshr miss latency ((Tick/Count))
system.cpu.dtb_walker_cache.overallAvgMshrMissLatency::total 62589.777253                       # average overall mshr miss latency ((Tick/Count))
system.cpu.dtb_walker_cache.replacements        22835                       # number of replacements (Count)
system.cpu.dtb_walker_cache.ReadReq.hits::cpu.mmu.dtb.walker       213677                       # number of ReadReq hits (Count)
system.cpu.dtb_walker_cache.ReadReq.hits::total       213677                       # number of ReadReq hits (Count)
system.cpu.dtb_walker_cache.ReadReq.misses::cpu.mmu.dtb.walker        22851                       # number of ReadReq misses (Count)
system.cpu.dtb_walker_cache.ReadReq.misses::total        22851                       # number of ReadReq misses (Count)
system.cpu.dtb_walker_cache.ReadReq.missLatency::cpu.mmu.dtb.walker   1453090000                       # number of ReadReq miss ticks (Tick)
system.cpu.dtb_walker_cache.ReadReq.missLatency::total   1453090000                       # number of ReadReq miss ticks (Tick)
system.cpu.dtb_walker_cache.ReadReq.accesses::cpu.mmu.dtb.walker       236528                       # number of ReadReq accesses(hits+misses) (Count)
system.cpu.dtb_walker_cache.ReadReq.accesses::total       236528                       # number of ReadReq accesses(hits+misses) (Count)
system.cpu.dtb_walker_cache.ReadReq.missRate::cpu.mmu.dtb.walker     0.096610                       # miss rate for ReadReq accesses (Ratio)
system.cpu.dtb_walker_cache.ReadReq.missRate::total     0.096610                       # miss rate for ReadReq accesses (Ratio)
system.cpu.dtb_walker_cache.ReadReq.avgMissLatency::cpu.mmu.dtb.walker 63589.777253                       # average ReadReq miss latency ((Tick/Count))
system.cpu.dtb_walker_cache.ReadReq.avgMissLatency::total 63589.777253                       # average ReadReq miss latency ((Tick/Count))
system.cpu.dtb_walker_cache.ReadReq.mshrMisses::cpu.mmu.dtb.walker        22851                       # number of ReadReq MSHR misses (Count)
system.cpu.dtb_walker_cache.ReadReq.mshrMisses::total        22851                       # number of ReadReq MSHR misses (Count)
system.cpu.dtb_walker_cache.ReadReq.mshrMissLatency::cpu.mmu.dtb.walker   1430239000                       # number of ReadReq MSHR miss ticks (Tick)
system.cpu.dtb_walker_cache.ReadReq.mshrMissLatency::total   1430239000                       # number of ReadReq MSHR miss ticks (Tick)
system.cpu.dtb_walker_cache.ReadReq.mshrMissRate::cpu.mmu.dtb.walker     0.096610                       # mshr miss rate for ReadReq accesses (Ratio)
system.cpu.dtb_walker_cache.ReadReq.mshrMissRate::total     0.096610                       # mshr miss rate for ReadReq accesses (Ratio)
system.cpu.dtb_walker_cache.ReadReq.avgMshrMissLatency::cpu.mmu.dtb.walker 62589.777253                       # average ReadReq mshr miss latency ((Tick/Count))
system.cpu.dtb_walker_cache.ReadReq.avgMshrMissLatency::total 62589.777253                       # average ReadReq mshr miss latency ((Tick/Count))
system.cpu.dtb_walker_cache.power_state.pwrStateResidencyTicks::UNDEFINED  12438741500                       # Cumulative time (in ticks) in various power states (Tick)
system.cpu.dtb_walker_cache.tags.tagsInUse    15.992973                       # Average ticks per tags in use ((Tick/Count))
system.cpu.dtb_walker_cache.tags.totalRefs       235604                       # Total number of references to valid blocks. (Count)
system.cpu.dtb_walker_cache.tags.sampledRefs        22835                       # Sample count of references to valid blocks. (Count)
system.cpu.dtb_walker_cache.tags.avgRefs    10.317670                       # Average number of references to valid blocks. ((Count/Count))
system.cpu.dtb_walker_cache.tags.warmupTick      1754500                       # The tick when the warmup percentage was hit. (Tick)
system.cpu.dtb_walker_cache.tags.occupancies::cpu.mmu.dtb.walker    15.992973                       # Average occupied blocks per tick, per requestor ((Count/Tick))
system.cpu.dtb_walker_cache.tags.avgOccs::cpu.mmu.dtb.walker     0.999561                       # Average percentage of cache occupancy ((Ratio/Tick))
system.cpu.dtb_walker_cache.tags.avgOccs::total     0.999561                       # Average percentage of cache occupancy ((Ratio/Tick))
system.cpu.dtb_walker_cache.tags.occupanciesTaskId::1024           16                       # Occupied blocks per task id (Count)
system.cpu.dtb_walker_cache.tags.ageTaskId_1024::0            2                       # Occupied blocks per task id, per block age (Count)
system.cpu.dtb_walker_cache.tags.ageTaskId_1024::1           11                       # Occupied blocks per task id, per block age (Count)
system.cpu.dtb_walker_cache.tags.ageTaskId_1024::2            3                       # Occupied blocks per task id, per block age (Count)
system.cpu.dtb_walker_cache.tags.ratioOccsTaskId::1024            1                       # Ratio of occupied blocks and all blocks, per task id (Ratio)
system.cpu.dtb_walker_cache.tags.tagAccesses       495907                       # Number of tag accesses (Count)
system.cpu.dtb_walker_cache.tags.dataAccesses       495907                       # Number of data accesses (Count)
system.cpu.dtb_walker_cache.tags.power_state.pwrStateResidencyTicks::UNDEFINED  12438741500                       # Cumulative time (in ticks) in various power states (Tick)
system.cpu.fetch.icacheStallCycles              15441                       # Number of cycles fetch is stalled on an Icache miss (Cycle)
system.cpu.fetch.insts                       50520905                       # Number of instructions fetch has processed (Count)
system.cpu.fetch.branches                     4402399                       # Number of branches that fetch encountered (Count)
system.cpu.fetch.predictedBranches            4402399                       # Number of branches that fetch has predicted taken (Count)
system.cpu.fetch.cycles                      24823162                       # Number of cycles fetch has run and was not squashing or blocked (Cycle)
system.cpu.fetch.squashCycles                   20190                       # Number of cycles fetch has spent squashing (Cycle)
system.cpu.fetch.tlbCycles                       6867                       # Number of cycles fetch has spent waiting for tlb (Cycle)
system.cpu.fetch.miscStallCycles                  747                       # Number of cycles fetch has spent waiting on interrupts, or bad addresses, or out of MSHRs (Cycle)
system.cpu.fetch.pendingTrapStallCycles           437                       # Number of stall cycles due to pending traps (Cycle)
system.cpu.fetch.icacheWaitRetryStallCycles         1379                       # Number of stall cycles due to full MSHR (Cycle)
system.cpu.fetch.cacheLines                   4483264                       # Number of cache lines fetched (Count)
system.cpu.fetch.icacheSquashes                   348                       # Number of outstanding Icache misses that were squashed (Count)
system.cpu.fetch.tlbSquashes                       37                       # Number of outstanding ITLB misses that were squashed (Count)
system.cpu.fetch.nisnDist::samples           24858128                       # Number of instructions fetched each cycle (Total) (Count)
system.cpu.fetch.nisnDist::mean              2.032370                       # Number of instructions fetched each cycle (Total) (Count)
system.cpu.fetch.nisnDist::stdev             2.994371                       # Number of instructions fetched each cycle (Total) (Count)
system.cpu.fetch.nisnDist::underflows               0      0.00%      0.00% # Number of instructions fetched each cycle (Total) (Count)
system.cpu.fetch.nisnDist::0                 14260674     57.37%     57.37% # Number of instructions fetched each cycle (Total) (Count)
system.cpu.fetch.nisnDist::1                  1772765      7.13%     64.50% # Number of instructions fetched each cycle (Total) (Count)
system.cpu.fetch.nisnDist::2                  1746717      7.03%     71.53% # Number of instructions fetched each cycle (Total) (Count)
system.cpu.fetch.nisnDist::3                  1063745      4.28%     75.81% # Number of instructions fetched each cycle (Total) (Count)
system.cpu.fetch.nisnDist::4                   804437      3.24%     79.04% # Number of instructions fetched each cycle (Total) (Count)
system.cpu.fetch.nisnDist::5                   430459      1.73%     80.77% # Number of instructions fetched each cycle (Total) (Count)
system.cpu.fetch.nisnDist::6                   418397      1.68%     82.46% # Number of instructions fetched each cycle (Total) (Count)
system.cpu.fetch.nisnDist::7                   704425      2.83%     85.29% # Number of instructions fetched each cycle (Total) (Count)
system.cpu.fetch.nisnDist::8                  3656509     14.71%    100.00% # Number of instructions fetched each cycle (Total) (Count)
system.cpu.fetch.nisnDist::overflows                0      0.00%    100.00% # Number of instructions fetched each cycle (Total) (Count)
system.cpu.fetch.nisnDist::min_value                0                       # Number of instructions fetched each cycle (Total) (Count)
system.cpu.fetch.nisnDist::max_value                8                       # Number of instructions fetched each cycle (Total) (Count)
system.cpu.fetch.nisnDist::total             24858128                       # Number of instructions fetched each cycle (Total) (Count)
system.cpu.fetch.branchRate                  0.176963                       # Number of branch fetches per cycle (Ratio)
system.cpu.fetch.rate                        2.030788                       # Number of inst fetches per cycle ((Count/Cycle))
system.cpu.icache.demandHits::cpu.inst        4482673                       # number of demand (read+write) hits (Count)
system.cpu.icache.demandHits::total           4482673                       # number of demand (read+write) hits (Count)
system.cpu.icache.overallHits::cpu.inst       4482673                       # number of overall hits (Count)
system.cpu.icache.overallHits::total          4482673                       # number of overall hits (Count)
system.cpu.icache.demandMisses::cpu.inst          583                       # number of demand (read+write) misses (Count)
system.cpu.icache.demandMisses::total             583                       # number of demand (read+write) misses (Count)
system.cpu.icache.overallMisses::cpu.inst          583                       # number of overall misses (Count)
system.cpu.icache.overallMisses::total            583                       # number of overall misses (Count)
system.cpu.icache.demandMissLatency::cpu.inst     35281994                       # number of demand (read+write) miss ticks (Tick)
system.cpu.icache.demandMissLatency::total     35281994                       # number of demand (read+write) miss ticks (Tick)
system.cpu.icache.overallMissLatency::cpu.inst     35281994                       # number of overall miss ticks (Tick)
system.cpu.icache.overallMissLatency::total     35281994                       # number of overall miss ticks (Tick)
system.cpu.icache.demandAccesses::cpu.inst      4483256                       # number of demand (read+write) accesses (Count)
system.cpu.icache.demandAccesses::total       4483256                       # number of demand (read+write) accesses (Count)
system.cpu.icache.overallAccesses::cpu.inst      4483256                       # number of overall (read+write) accesses (Count)
system.cpu.icache.overallAccesses::total      4483256                       # number of overall (read+write) accesses (Count)
system.cpu.icache.demandMissRate::cpu.inst     0.000130                       # miss rate for demand accesses (Ratio)
system.cpu.icache.demandMissRate::total      0.000130                       # miss rate for demand accesses (Ratio)
system.cpu.icache.overallMissRate::cpu.inst     0.000130                       # miss rate for overall accesses (Ratio)
system.cpu.icache.overallMissRate::total     0.000130                       # miss rate for overall accesses (Ratio)
system.cpu.icache.demandAvgMissLatency::cpu.inst        60518                       # average overall miss latency in ticks ((Tick/Count))
system.cpu.icache.demandAvgMissLatency::total        60518                       # average overall miss latency in ticks ((Tick/Count))
system.cpu.icache.overallAvgMissLatency::cpu.inst        60518                       # average overall miss latency ((Tick/Count))
system.cpu.icache.overallAvgMissLatency::total        60518                       # average overall miss latency ((Tick/Count))
system.cpu.icache.blockedCycles::no_mshrs         8846                       # number of cycles access was blocked (Cycle)
system.cpu.icache.blockedCycles::no_targets            0                       # number of cycles access was blocked (Cycle)
system.cpu.icache.blockedCauses::no_mshrs           96                       # number of times access was blocked (Count)
system.cpu.icache.blockedCauses::no_targets            0                       # number of times access was blocked (Count)
system.cpu.icache.avgBlocked::no_mshrs      92.145833                       # average number of cycles each access was blocked ((Cycle/Count))
system.cpu.icache.avgBlocked::no_targets          nan                       # average number of cycles each access was blocked ((Cycle/Count))
system.cpu.icache.demandMshrHits::cpu.inst          167                       # number of demand (read+write) MSHR hits (Count)
system.cpu.icache.demandMshrHits::total           167                       # number of demand (read+write) MSHR hits (Count)
system.cpu.icache.overallMshrHits::cpu.inst          167                       # number of overall MSHR hits (Count)
system.cpu.icache.overallMshrHits::total          167                       # number of overall MSHR hits (Count)
system.cpu.icache.demandMshrMisses::cpu.inst          416                       # number of demand (read+write) MSHR misses (Count)
[...]
system.mem_ctrls.dram.bytesPerActivate::mean   346.814603                       # Bytes accessed per row activation (Byte)
system.mem_ctrls.dram.bytesPerActivate::gmean   207.885249                       # Bytes accessed per row activation (Byte)
system.mem_ctrls.dram.bytesPerActivate::stdev   345.863743                       # Bytes accessed per row activation (Byte)
system.mem_ctrls.dram.bytesPerActivate::0-127         6320     31.14%     31.14% # Bytes accessed per row activation (Byte)
system.mem_ctrls.dram.bytesPerActivate::128-255         5079     25.02%     56.16% # Bytes accessed per row activation (Byte)
system.mem_ctrls.dram.bytesPerActivate::256-383         2456     12.10%     68.26% # Bytes accessed per row activation (Byte)
system.mem_ctrls.dram.bytesPerActivate::384-511         1131      5.57%     73.83% # Bytes accessed per row activation (Byte)
system.mem_ctrls.dram.bytesPerActivate::512-639          704      3.47%     77.30% # Bytes accessed per row activation (Byte)
system.mem_ctrls.dram.bytesPerActivate::640-767          570      2.81%     80.11% # Bytes accessed per row activation (Byte)
system.mem_ctrls.dram.bytesPerActivate::768-895          630      3.10%     83.21% # Bytes accessed per row activation (Byte)
system.mem_ctrls.dram.bytesPerActivate::896-1023          471      2.32%     85.53% # Bytes accessed per row activation (Byte)
system.mem_ctrls.dram.bytesPerActivate::1024-1151         2936     14.47%    100.00% # Bytes accessed per row activation (Byte)
system.mem_ctrls.dram.bytesPerActivate::total        20297                       # Bytes accessed per row activation (Byte)
system.mem_ctrls.dram.bytesRead               7043712                       # Total bytes read (Byte)
system.mem_ctrls.dram.bytesWritten                  0                       # Total bytes written (Byte)
system.mem_ctrls.dram.avgRdBW              575.070272                       # Average DRAM read bandwidth in MiBytes/s ((Byte/Second))
system.mem_ctrls.dram.avgWrBW                       0                       # Average DRAM write bandwidth in MiBytes/s ((Byte/Second))
system.mem_ctrls.dram.peakBW                 19207.00                       # Theoretical peak bandwidth in MiByte/s ((Byte/Second))
system.mem_ctrls.dram.busUtil                    2.99                       # Data bus utilization in percentage (Ratio)
system.mem_ctrls.dram.busUtilRead                2.99                       # Data bus utilization in percentage for reads (Ratio)
system.mem_ctrls.dram.busUtilWrite               0.00                       # Data bus utilization in percentage for writes (Ratio)
system.mem_ctrls.dram.pageHitRate               81.54                       # Row buffer hit rate, read and write combined (Ratio)
system.mem_ctrls.dram.power_state.pwrStateResidencyTicks::UNDEFINED  12248437000                       # Cumulative time (in ticks) in various power states (Tick)
system.mem_ctrls.dram.rank0.actEnergy    38207830.752000                       # Energy for activate commands per rank (pJ) (Joule)
system.mem_ctrls.dram.rank0.preEnergy    50755357.732800                       # Energy for precharge commands per rank (pJ) (Joule)
system.mem_ctrls.dram.rank0.readEnergy   274929072.364799                       # Energy for read commands per rank (pJ) (Joule)
system.mem_ctrls.dram.rank0.writeEnergy             0                       # Energy for write commands per rank (pJ) (Joule)
system.mem_ctrls.dram.rank0.refreshEnergy 2179199007.585522                       # Energy for refresh commands per rank (pJ) (Joule)
system.mem_ctrls.dram.rank0.actBackEnergy 7886585119.593619                       # Energy for active background per rank (pJ) (Joule)
system.mem_ctrls.dram.rank0.preBackEnergy 1936030653.849606                       # Energy for precharge background per rank (pJ) (Joule)
system.mem_ctrls.dram.rank0.actPowerDownEnergy            0                       # Energy for active power-down per rank (pJ) (Joule)
system.mem_ctrls.dram.rank0.prePowerDownEnergy            0                       # Energy for precharge power-down per rank (pJ) (Joule)
system.mem_ctrls.dram.rank0.selfRefreshEnergy            0                       # Energy for self refresh per rank (pJ) (Joule)
system.mem_ctrls.dram.rank0.totalEnergy  12365707041.878351                       # Total energy per rank (pJ) (Joule)
system.mem_ctrls.dram.rank0.averagePower  1009.574286                       # Core power per rank (mW) (Watt)
system.mem_ctrls.dram.rank0.totalIdleTime            0                       # Total Idle time Per DRAM Rank (Tick)
system.mem_ctrls.dram.rank0.pwrStateTime::IDLE   2911201524                       # Time in different power states (Tick)
system.mem_ctrls.dram.rank0.pwrStateTime::REF    550550000                       # Time in different power states (Tick)
system.mem_ctrls.dram.rank0.pwrStateTime::SREF            0                       # Time in different power states (Tick)
system.mem_ctrls.dram.rank0.pwrStateTime::PRE_PDN            0                       # Time in different power states (Tick)
system.mem_ctrls.dram.rank0.pwrStateTime::ACT   8786685476                       # Time in different power states (Tick)
system.mem_ctrls.dram.rank0.pwrStateTime::ACT_PDN            0                       # Time in different power states (Tick)
system.mem_ctrls.dram.rank1.actEnergy    25149616.128000                       # Energy for activate commands per rank (pJ) (Joule)
system.mem_ctrls.dram.rank1.preEnergy    33402921.484800                       # Energy for precharge commands per rank (pJ) (Joule)
system.mem_ctrls.dram.rank1.readEnergy   188009742.009600                       # Energy for read commands per rank (pJ) (Joule)
system.mem_ctrls.dram.rank1.writeEnergy             0                       # Energy for write commands per rank (pJ) (Joule)
system.mem_ctrls.dram.rank1.refreshEnergy 2179199007.585522                       # Energy for refresh commands per rank (pJ) (Joule)
system.mem_ctrls.dram.rank1.actBackEnergy 6148272007.080052                       # Energy for active background per rank (pJ) (Joule)
system.mem_ctrls.dram.rank1.preBackEnergy 3271683666.854427                       # Energy for precharge background per rank (pJ) (Joule)
system.mem_ctrls.dram.rank1.actPowerDownEnergy            0                       # Energy for active power-down per rank (pJ) (Joule)
system.mem_ctrls.dram.rank1.prePowerDownEnergy            0                       # Energy for precharge power-down per rank (pJ) (Joule)
system.mem_ctrls.dram.rank1.selfRefreshEnergy            0                       # Energy for self refresh per rank (pJ) (Joule)
system.mem_ctrls.dram.rank1.totalEnergy  11845716961.142324                       # Total energy per rank (pJ) (Joule)
system.mem_ctrls.dram.rank1.averagePower   967.120700                       # Core power per rank (mW) (Watt)
system.mem_ctrls.dram.rank1.totalIdleTime            0                       # Total Idle time Per DRAM Rank (Tick)
system.mem_ctrls.dram.rank1.pwrStateTime::IDLE   4965336224                       # Time in different power states (Tick)
system.mem_ctrls.dram.rank1.pwrStateTime::REF    550550000                       # Time in different power states (Tick)
system.mem_ctrls.dram.rank1.pwrStateTime::SREF            0                       # Time in different power states (Tick)
system.mem_ctrls.dram.rank1.pwrStateTime::PRE_PDN            0                       # Time in different power states (Tick)
system.mem_ctrls.dram.rank1.pwrStateTime::ACT   6732550776                       # Time in different power states (Tick)
system.mem_ctrls.dram.rank1.pwrStateTime::ACT_PDN            0                       # Time in different power states (Tick)
system.mem_ctrls.power_state.pwrStateResidencyTicks::UNDEFINED  12248437000                       # Cumulative time (in ticks) in various power states (Tick)
system.membus.transDist::ReadResp              110036                       # Transaction distribution (Count)
system.membus.transDist::CleanEvict            104989                       # Transaction distribution (Count)
system.membus.transDist::ReadExReq                 22                       # Transaction distribution (Count)
system.membus.transDist::ReadExResp                22                       # Transaction distribution (Count)
system.membus.transDist::ReadCleanReq          110036                       # Transaction distribution (Count)
system.membus.pktCount_system.l2.mem_side_port::system.mem_ctrls.port       325105                       # Packet count per connected requestor and responder (Count)
system.membus.pktCount_system.l2.mem_side_port::total       325105                       # Packet count per connected requestor and responder (Count)
system.membus.pktCount::total                  325105                       # Packet count per connected requestor and responder (Count)
system.membus.pktSize_system.l2.mem_side_port::system.mem_ctrls.port      7043712                       # Cumulative packet size per connected requestor and responder (Byte)
system.membus.pktSize_system.l2.mem_side_port::total      7043712                       # Cumulative packet size per connected requestor and responder (Byte)
system.membus.pktSize::total                  7043712                       # Cumulative packet size per connected requestor and responder (Byte)
system.membus.snoops                                0                       # Total snoops (Count)
system.membus.snoopTraffic                          0                       # Total snoop traffic (Byte)
system.membus.snoopFanout::samples             110058                       # Request fanout histogram (Count)
system.membus.snoopFanout::mean                     0                       # Request fanout histogram (Count)
system.membus.snoopFanout::stdev                    0                       # Request fanout histogram (Count)
system.membus.snoopFanout::underflows               0      0.00%      0.00% # Request fanout histogram (Count)
system.membus.snoopFanout::0                   110058    100.00%    100.00% # Request fanout histogram (Count)
system.membus.snoopFanout::1                        0      0.00%    100.00% # Request fanout histogram (Count)
system.membus.snoopFanout::2                        0      0.00%    100.00% # Request fanout histogram (Count)
system.membus.snoopFanout::overflows                0      0.00%    100.00% # Request fanout histogram (Count)
system.membus.snoopFanout::min_value                0                       # Request fanout histogram (Count)
system.membus.snoopFanout::max_value                0                       # Request fanout histogram (Count)
system.membus.snoopFanout::total               110058                       # Request fanout histogram (Count)
system.membus.badaddr_responder.power_state.pwrStateResidencyTicks::UNDEFINED  12248437000                       # Cumulative time (in ticks) in various power states (Tick)
system.membus.power_state.pwrStateResidencyTicks::UNDEFINED  12248437000                       # Cumulative time (in ticks) in various power states (Tick)
system.membus.reqLayer4.occupancy           268257000                       # Layer occupancy (ticks) (Tick)
system.membus.reqLayer4.utilization               0.0                       # Layer utilization (Ratio)
system.membus.respLayer2.occupancy          600142160                       # Layer occupancy (ticks) (Tick)
system.membus.respLayer2.utilization              0.0                       # Layer utilization (Ratio)
system.membus.snoop_filter.totRequests         215047                       # Total number of requests made to the snoop filter. (Count)
system.membus.snoop_filter.hitSingleRequests       109472                       # Number of requests hitting in the snoop filter with a single holder of the requested data. (Count)
system.membus.snoop_filter.hitMultiRequests            0                       # Number of requests hitting in the snoop filter with multiple (>1) holders of the requested data. (Count)
system.membus.snoop_filter.totSnoops                0                       # Total number of snoops made to the snoop filter. (Count)
system.membus.snoop_filter.hitSingleSnoops            0                       # Number of snoops hitting in the snoop filter with a single holder of the requested data. (Count)
system.membus.snoop_filter.hitMultiSnoops            0                       # Number of snoops hitting in the snoop filter with multiple (>1) holders of the requested data. (Count)
system.mmcs.power_state.pwrStateResidencyTicks::UNDEFINED  12248437000                       # Cumulative time (in ticks) in various power states (Tick)
system.tol2bus.transDist::ReadResp             146637                       # Transaction distribution (Count)
system.tol2bus.transDist::WritebackDirty       112758                       # Transaction distribution (Count)
system.tol2bus.transDist::CleanEvict           109473                       # Transaction distribution (Count)
system.tol2bus.transDist::ReadExReq             75566                       # Transaction distribution (Count)
system.tol2bus.transDist::ReadExResp            75566                       # Transaction distribution (Count)
system.tol2bus.transDist::ReadCleanReq              3                       # Transaction distribution (Count)
system.tol2bus.transDist::ReadSharedReq        146634                       # Transaction distribution (Count)
system.tol2bus.transDist::InvalidateReq            31                       # Transaction distribution (Count)
system.tol2bus.transDist::InvalidateResp           31                       # Transaction distribution (Count)
system.tol2bus.pktCount_system.cpu.icache.mem_side_port::system.l2.cpu_side_port            6                       # Packet count per connected requestor and responder (Count)
system.tol2bus.pktCount_system.cpu.dcache.mem_side_port::system.l2.cpu_side_port       600591                       # Packet count per connected requestor and responder (Count)
system.tol2bus.pktCount_system.cpu.itb_walker_cache.mem_side_port::system.l2.cpu_side_port           36                       # Packet count per connected requestor and responder (Count)
system.tol2bus.pktCount_system.cpu.dtb_walker_cache.mem_side_port::system.l2.cpu_side_port        66066                       # Packet count per connected requestor and responder (Count)
system.tol2bus.pktCount::total                 666699                       # Packet count per connected requestor and responder (Count)
system.tol2bus.pktSize_system.cpu.icache.mem_side_port::system.l2.cpu_side_port          192                       # Cumulative packet size per connected requestor and responder (Byte)
system.tol2bus.pktSize_system.cpu.dcache.mem_side_port::system.l2.cpu_side_port     20027136                       # Cumulative packet size per connected requestor and responder (Byte)
system.tol2bus.pktSize_system.cpu.itb_walker_cache.mem_side_port::system.l2.cpu_side_port          768                       # Cumulative packet size per connected requestor and responder (Byte)
system.tol2bus.pktSize_system.cpu.dtb_walker_cache.mem_side_port::system.l2.cpu_side_port      1409408                       # Cumulative packet size per connected requestor and responder (Byte)
system.tol2bus.pktSize::total                21437504                       # Cumulative packet size per connected requestor and responder (Byte)
system.tol2bus.snoops                               0                       # Total snoops (Count)
system.tol2bus.snoopTraffic                         0                       # Total snoop traffic (Byte)
system.tol2bus.snoopFanout::samples            222234                       # Request fanout histogram (Count)
system.tol2bus.snoopFanout::mean             0.020181                       # Request fanout histogram (Count)
system.tol2bus.snoopFanout::stdev            0.140621                       # Request fanout histogram (Count)
system.tol2bus.snoopFanout::underflows              0      0.00%      0.00% # Request fanout histogram (Count)
system.tol2bus.snoopFanout::0                  217749     97.98%     97.98% # Request fanout histogram (Count)
system.tol2bus.snoopFanout::1                    4485      2.02%    100.00% # Request fanout histogram (Count)
system.tol2bus.snoopFanout::2                       0      0.00%    100.00% # Request fanout histogram (Count)
system.tol2bus.snoopFanout::3                       0      0.00%    100.00% # Request fanout histogram (Count)
system.tol2bus.snoopFanout::4                       0      0.00%    100.00% # Request fanout histogram (Count)
system.tol2bus.snoopFanout::overflows               0      0.00%    100.00% # Request fanout histogram (Count)
system.tol2bus.snoopFanout::min_value               0                       # Request fanout histogram (Count)
system.tol2bus.snoopFanout::max_value               1                       # Request fanout histogram (Count)
system.tol2bus.snoopFanout::total              222234                       # Request fanout histogram (Count)
system.tol2bus.power_state.pwrStateResidencyTicks::UNDEFINED  12248437000                       # Cumulative time (in ticks) in various power states (Tick)
system.tol2bus.reqLayer0.occupancy          278617500                       # Layer occupancy (ticks) (Tick)
system.tol2bus.reqLayer0.utilization              0.0                       # Layer utilization (Ratio)
system.tol2bus.respLayer0.occupancy              3499                       # Layer occupancy (ticks) (Tick)
system.tol2bus.respLayer0.utilization             0.0                       # Layer utilization (Ratio)
system.tol2bus.respLayer1.occupancy         200181500                       # Layer occupancy (ticks) (Tick)
system.tol2bus.respLayer1.utilization             0.0                       # Layer utilization (Ratio)
system.tol2bus.respLayer2.occupancy             12998                       # Layer occupancy (ticks) (Tick)
system.tol2bus.respLayer2.utilization             0.0                       # Layer utilization (Ratio)
system.tol2bus.respLayer3.occupancy          22022000                       # Layer occupancy (ticks) (Tick)
system.tol2bus.respLayer3.utilization             0.0                       # Layer utilization (Ratio)
system.tol2bus.snoop_filter.totRequests        444477                       # Total number of requests made to the snoop filter. (Count)
system.tol2bus.snoop_filter.hitSingleRequests       222244                       # Number of requests hitting in the snoop filter with a single holder of the requested data. (Count)
system.tol2bus.snoop_filter.hitMultiRequests         4484                       # Number of requests hitting in the snoop filter with multiple (>1) holders of the requested data. (Count)
system.tol2bus.snoop_filter.totSnoops               0                       # Total number of snoops made to the snoop filter. (Count)
system.tol2bus.snoop_filter.hitSingleSnoops            0                       # Number of snoops hitting in the snoop filter with a single holder of the requested data. (Count)
system.tol2bus.snoop_filter.hitMultiSnoops            0                       # Number of snoops hitting in the snoop filter with multiple (>1) holders of the requested data. (Count)
system.uartlite.power_state.pwrStateResidencyTicks::UNDEFINED  12248437000                       # Cumulative time (in ticks) in various power states (Tick)
system.voltage_domain.voltage                       1                       # Voltage in Volts (Volt)
system.workload.inst.arm                            0                       # number of arm instructions executed (Count)
system.workload.inst.quiesce                        0                       # number of quiesce instructions executed (Count)

---------- End Simulation Statistics   ----------
