
---------- Begin Simulation Statistics ----------
simSeconds                                   0.025682                       # Number of seconds simulated (Second)
simTicks                                  25681697500                       # Number of ticks simulated (Tick)
finalTick                                 25681697500                       # Number of ticks from beginning of simulation (restored from checkpoints and never reset) (Tick)
simFreq                                  1000000000000                       # The number of ticks per simulated second ((Tick/Second))
hostSeconds                                    423.82                       # Real time elapsed on the host (Second)
hostTickRate                                 60595160                       # The number of ticks simulated per host second (ticks/s) ((Tick/Second))
hostMemory                                   23255616                       # Number of bytes of host memory used (Byte)
simInsts                                     50000007                       # Number of instructions simulated (Count)
simOps                                       50000007                       # Number of ops (including micro ops) simulated (Count)
hostInstRate                                   117973                       # Simulator instruction rate (inst/s) ((Count/Second))
hostOpRate                                     117973                       # Simulator op (including micro ops) rate (op/s) ((Count/Second))
system.bridge.power_state.pwrStateResidencyTicks::UNDEFINED  25681697500                       # Cumulative time (in ticks) in various power states (Tick)
system.clk_domain.clock                          1000                       # Clock period in ticks (Tick)
system.cpu.numCycles                         51363396                       # Number of cpu cycles simulated (Cycle)
system.cpu.numWorkItemsStarted                      0                       # Number of work items this cpu started (Count)
system.cpu.numWorkItemsCompleted                    0                       # Number of work items this cpu completed (Count)
system.cpu.instsAdded                        50052190                       # Number of instructions added to the IQ (excludes non-spec) (Count)
system.cpu.nonSpecInstsAdded                       33                       # Number of non-speculative instructions added to the IQ (Count)
system.cpu.instsIssued                       50289462                       # Number of instructions issued (Count)
system.cpu.squashedInstsIssued                   1503                       # Number of squashed instructions issued (Count)
system.cpu.squashedInstsExamined                52154                       # Number of squashed instructions iterated over during squash; mainly for profiling (Count)
system.cpu.squashedOperandsExamined             37358                       # Number of squashed operands that are examined and possibly removed from graph (Count)
system.cpu.numIssuedDist::samples            51361506                       # Number of insts issued each cycle (Count)
system.cpu.numIssuedDist::mean               0.979127                       # Number of insts issued each cycle (Count)
system.cpu.numIssuedDist::stdev              1.847068                       # Number of insts issued each cycle (Count)
system.cpu.numIssuedDist::underflows                0      0.00%      0.00% # Number of insts issued each cycle (Count)
system.cpu.numIssuedDist::0                  34432246     67.04%     67.04% # Number of insts issued each cycle (Count)
system.cpu.numIssuedDist::1                   6039773     11.76%     78.80% # Number of insts issued each cycle (Count)
system.cpu.numIssuedDist::2                   2960311      5.76%     84.56% # Number of insts issued each cycle (Count)
system.cpu.numIssuedDist::3                   2229687      4.34%     88.90% # Number of insts issued each cycle (Count)
system.cpu.numIssuedDist::4                   1782566      3.47%     92.37% # Number of insts issued each cycle (Count)
system.cpu.numIssuedDist::5                   1237673      2.41%     94.78% # Number of insts issued each cycle (Count)
system.cpu.numIssuedDist::6                   1137036      2.21%     97.00% # Number of insts issued each cycle (Count)
system.cpu.numIssuedDist::7                    838551      1.63%     98.63% # Number of insts issued each cycle (Count)
system.cpu.numIssuedDist::8                    703663      1.37%    100.00% # Number of insts issued each cycle (Count)
system.cpu.numIssuedDist::overflows                 0      0.00%    100.00% # Number of insts issued each cycle (Count)
system.cpu.numIssuedDist::min_value                 0                       # Number of insts issued each cycle (Count)
system.cpu.numIssuedDist::max_value                 8                       # Number of insts issued each cycle (Count)
system.cpu.numIssuedDist::total              51361506                       # Number of insts issued each cycle (Count)
system.cpu.statFuBusy::No_OpClass                   0      0.00%      0.00% # attempts to use FU when none available (Count)
system.cpu.statFuBusy::IntAlu                  105766      1.29%      1.29% # attempts to use FU when none available (Count)
system.cpu.statFuBusy::IntMult                      0      0.00%      1.29% # attempts to use FU when none available (Count)
system.cpu.statFuBusy::IntDiv                       0      0.00%      1.29% # attempts to use FU when none available (Count)
system.cpu.statFuBusy::FloatAdd                 21357      0.26%      1.55% # attempts to use FU when none available (Count)
system.cpu.statFuBusy::FloatCmp                     0      0.00%      1.55% # attempts to use FU when none available (Count)
system.cpu.statFuBusy::FloatCvt                     0      0.00%      1.55% # attempts to use FU when none available (Count)
system.cpu.statFuBusy::FloatMult              3846373     46.82%     48.37% # attempts to use FU when none available (Count)
system.cpu.statFuBusy::FloatMultAcc            834383     10.16%     58.53% # attempts to use FU when none available (Count)
system.cpu.statFuBusy::FloatDiv                833526     10.15%     68.68% # attempts to use FU when none available (Count)
system.cpu.statFuBusy::FloatMisc               130100      1.58%     70.26% # attempts to use FU when none available (Count)
system.cpu.statFuBusy::FloatSqrt              1659901     20.21%     90.47% # attempts to use FU when none available (Count)
system.cpu.statFuBusy::SimdAdd                      0      0.00%     90.47% # attempts to use FU when none available (Count)
system.cpu.statFuBusy::SimdAddAcc                   0      0.00%     90.47% # attempts to use FU when none available (Count)
system.cpu.statFuBusy::SimdAlu                      0      0.00%     90.47% # attempts to use FU when none available (Count)
system.cpu.statFuBusy::SimdCmp                      0      0.00%     90.47% # attempts to use FU when none available (Count)
system.cpu.statFuBusy::SimdCvt                      0      0.00%     90.47% # attempts to use FU when none available (Count)
system.cpu.statFuBusy::SimdMisc                     0      0.00%     90.47% # attempts to use FU when none available (Count)
system.cpu.statFuBusy::SimdMult                     0      0.00%     90.47% # attempts to use FU when none available (Count)
system.cpu.statFuBusy::SimdMultAcc                  0      0.00%     90.47% # attempts to use FU when none available (Count)
system.cpu.statFuBusy::SimdShift                    0      0.00%     90.47% # attempts to use FU when none available (Count)
system.cpu.statFuBusy::SimdShiftAcc                 0      0.00%     90.47% # attempts to use FU when none available (Count)
system.cpu.statFuBusy::SimdDiv                      0      0.00%     90.47% # attempts to use FU when none available (Count)
system.cpu.statFuBusy::SimdSqrt                     0      0.00%     90.47% # attempts to use FU when none available (Count)
system.cpu.statFuBusy::SimdFloatAdd                 0      0.00%     90.47% # attempts to use FU when none available (Count)
system.cpu.statFuBusy::SimdFloatAlu                 0      0.00%     90.47% # attempts to use FU when none available (Count)
system.cpu.statFuBusy::SimdFloatCmp                 0      0.00%     90.47% # attempts to use FU when none available (Count)
system.cpu.statFuBusy::SimdFloatCvt                 0      0.00%     90.47% # attempts to use FU when none available (Count)
system.cpu.statFuBusy::SimdFloatDiv                 0      0.00%     90.47% # attempts to use FU when none available (Count)
system.cpu.statFuBusy::SimdFloatMisc                0      0.00%     90.47% # attempts to use FU when none available (Count)
system.cpu.statFuBusy::SimdFloatMult                0      0.00%     90.47% # attempts to use FU when none available (Count)
system.cpu.statFuBusy::SimdFloatMultAcc             0      0.00%     90.47% # attempts to use FU when none available (Count)
system.cpu.statFuBusy::SimdFloatSqrt                0      0.00%     90.47% # attempts to use FU when none available (Count)
system.cpu.statFuBusy::SimdReduceAdd                0      0.00%     90.47% # attempts to use FU when none available (Count)
system.cpu.statFuBusy::SimdReduceAlu                0      0.00%     90.47% # attempts to use FU when none available (Count)
system.cpu.statFuBusy::SimdReduceCmp                0      0.00%     90.47% # attempts to use FU when none available (Count)
system.cpu.statFuBusy::SimdFloatReduceAdd            0      0.00%     90.47% # attempts to use FU when none available (Count)
system.cpu.statFuBusy::SimdFloatReduceCmp            0      0.00%     90.47% # attempts to use FU when none available (Count)
system.cpu.statFuBusy::SimdAes                      0      0.00%     90.47% # attempts to use FU when none available (Count)
system.cpu.statFuBusy::SimdAesMix                   0      0.00%     90.47% # attempts to use FU when none available (Count)
system.cpu.statFuBusy::SimdSha1Hash                 0      0.00%     90.47% # attempts to use FU when none available (Count)
system.cpu.statFuBusy::SimdSha1Hash2                0      0.00%     90.47% # attempts to use FU when none available (Count)
system.cpu.statFuBusy::SimdSha256Hash               0      0.00%     90.47% # attempts to use FU when none available (Count)
system.cpu.statFuBusy::SimdSha256Hash2              0      0.00%     90.47% # attempts to use FU when none available (Count)
system.cpu.statFuBusy::SimdShaSigma2                0      0.00%     90.47% # attempts to use FU when none available (Count)
system.cpu.statFuBusy::SimdShaSigma3                0      0.00%     90.47% # attempts to use FU when none available (Count)
system.cpu.statFuBusy::SimdPredAlu                  0      0.00%     90.47% # attempts to use FU when none available (Count)
system.cpu.statFuBusy::MemRead                 131820      1.60%     92.07% # attempts to use FU when none available (Count)
system.cpu.statFuBusy::MemWrite                  3909      0.05%     92.12% # attempts to use FU when none available (Count)
system.cpu.statFuBusy::FloatMemRead            647441      7.88%    100.00% # attempts to use FU when none available (Count)
system.cpu.statFuBusy::FloatMemWrite                0      0.00%    100.00% # attempts to use FU when none available (Count)
system.cpu.statFuBusy::IprAccess                    0      0.00%    100.00% # attempts to use FU when none available (Count)
system.cpu.statFuBusy::InstPrefetch                 0      0.00%    100.00% # attempts to use FU when none available (Count)
system.cpu.statIssuedInstType_0::No_OpClass           32      0.00%      0.00% # Number of instructions issued per FU type, per thread (Count)
system.cpu.statIssuedInstType_0::IntAlu      19094910     37.97%     37.97% # Number of instructions issued per FU type, per thread (Count)
system.cpu.statIssuedInstType_0::IntMult          263      0.00%     37.97% # Number of instructions issued per FU type, per thread (Count)
system.cpu.statIssuedInstType_0::IntDiv             0      0.00%     37.97% # Number of instructions issued per FU type, per thread (Count)
system.cpu.statIssuedInstType_0::FloatAdd      5067402     10.08%     48.05% # Number of instructions issued per FU type, per thread (Count)
system.cpu.statIssuedInstType_0::FloatCmp            0      0.00%     48.05% # Number of instructions issued per FU type, per thread (Count)
system.cpu.statIssuedInstType_0::FloatCvt          102      0.00%     48.05% # Number of instructions issued per FU type, per thread (Count)
system.cpu.statIssuedInstType_0::FloatMult      4562546      9.07%     57.12% # Number of instructions issued per FU type, per thread (Count)
system.cpu.statIssuedInstType_0::FloatMultAcc      3409904      6.78%     63.90% # Number of instructions issued per FU type, per thread (Count)
system.cpu.statIssuedInstType_0::FloatDiv       276250      0.55%     64.45% # Number of instructions issued per FU type, per thread (Count)
system.cpu.statIssuedInstType_0::FloatMisc       140434      0.28%     64.73% # Number of instructions issued per FU type, per thread (Count)
system.cpu.statIssuedInstType_0::FloatSqrt       138120      0.27%     65.00% # Number of instructions issued per FU type, per thread (Count)
system.cpu.statIssuedInstType_0::SimdAdd            0      0.00%     65.00% # Number of instructions issued per FU type, per thread (Count)
system.cpu.statIssuedInstType_0::SimdAddAcc            0      0.00%     65.00% # Number of instructions issued per FU type, per thread (Count)
system.cpu.statIssuedInstType_0::SimdAlu            0      0.00%     65.00% # Number of instructions issued per FU type, per thread (Count)
system.cpu.statIssuedInstType_0::SimdCmp            0      0.00%     65.00% # Number of instructions issued per FU type, per thread (Count)
system.cpu.statIssuedInstType_0::SimdCvt            0      0.00%     65.00% # Number of instructions issued per FU type, per thread (Count)
system.cpu.statIssuedInstType_0::SimdMisc            0      0.00%     65.00% # Number of instructions issued per FU type, per thread (Count)
system.cpu.statIssuedInstType_0::SimdMult            0      0.00%     65.00% # Number of instructions issued per FU type, per thread (Count)
system.cpu.statIssuedInstType_0::SimdMultAcc            0      0.00%     65.00% # Number of instructions issued per FU type, per thread (Count)
system.cpu.statIssuedInstType_0::SimdShift            0      0.00%     65.00% # Number of instructions issued per FU type, per thread (Count)
system.cpu.statIssuedInstType_0::SimdShiftAcc            0      0.00%     65.00% # Number of instructions issued per FU type, per thread (Count)
system.cpu.statIssuedInstType_0::SimdDiv            0      0.00%     65.00% # Number of instructions issued per FU type, per thread (Count)
system.cpu.statIssuedInstType_0::SimdSqrt            0      0.00%     65.00% # Number of instructions issued per FU type, per thread (Count)
system.cpu.statIssuedInstType_0::SimdFloatAdd            0      0.00%     65.00% # Number of instructions issued per FU type, per thread (Count)
system.cpu.statIssuedInstType_0::SimdFloatAlu            0      0.00%     65.00% # Number of instructions issued per FU type, per thread (Count)
system.cpu.statIssuedInstType_0::SimdFloatCmp            0      0.00%     65.00% # Number of instructions issued per FU type, per thread (Count)
system.cpu.statIssuedInstType_0::SimdFloatCvt            0      0.00%     65.00% # Number of instructions issued per FU type, per thread (Count)
system.cpu.statIssuedInstType_0::SimdFloatDiv            0      0.00%     65.00% # Number of instructions issued per FU type, per thread (Count)
system.cpu.statIssuedInstType_0::SimdFloatMisc            0      0.00%     65.00% # Number of instructions issued per FU type, per thread (Count)
system.cpu.statIssuedInstType_0::SimdFloatMult            0      0.00%     65.00% # Number of instructions issued per FU type, per thread (Count)
system.cpu.statIssuedInstType_0::SimdFloatMultAcc            0      0.00%     65.00% # Number of instructions issued per FU type, per thread (Count)
system.cpu.statIssuedInstType_0::SimdFloatSqrt            0      0.00%     65.00% # Number of instructions issued per FU type, per thread (Count)
system.cpu.statIssuedInstType_0::SimdReduceAdd            0      0.00%     65.00% # Number of instructions issued per FU type, per thread (Count)
system.cpu.statIssuedInstType_0::SimdReduceAlu            0      0.00%     65.00% # Number of instructions issued per FU type, per thread (Count)
system.cpu.statIssuedInstType_0::SimdReduceCmp            0      0.00%     65.00% # Number of instructions issued per FU type, per thread (Count)
system.cpu.statIssuedInstType_0::SimdFloatReduceAdd            0      0.00%     65.00% # Number of instructions issued per FU type, per thread (Count)
system.cpu.statIssuedInstType_0::SimdFloatReduceCmp            0      0.00%     65.00% # Number of instructions issued per FU type, per thread (Count)
system.cpu.statIssuedInstType_0::SimdAes            0      0.00%     65.00% # Number of instructions issued per FU type, per thread (Count)
system.cpu.statIssuedInstType_0::SimdAesMix            0      0.00%     65.00% # Number of instructions issued per FU type, per thread (Count)
system.cpu.statIssuedInstType_0::SimdSha1Hash            0      0.00%     65.00% # Number of instructions issued per FU type, per thread (Count)
system.cpu.statIssuedInstType_0::SimdSha1Hash2            0      0.00%     65.00% # Number of instructions issued per FU type, per thread (Count)
system.cpu.statIssuedInstType_0::SimdSha256Hash            0      0.00%     65.00% # Number of instructions issued per FU type, per thread (Count)
system.cpu.statIssuedInstType_0::SimdSha256Hash2            0      0.00%     65.00% # Number of instructions issued per FU type, per thread (Count)
system.cpu.statIssuedInstType_0::SimdShaSigma2            0      0.00%     65.00% # Number of instructions issued per FU type, per thread (Count)
system.cpu.statIssuedInstType_0::SimdShaSigma3            0      0.00%     65.00% # Number of instructions issued per FU type, per thread (Count)
system.cpu.statIssuedInstType_0::SimdPredAlu            0      0.00%     65.00% # Number of instructions issued per FU type, per thread (Count)
system.cpu.statIssuedInstType_0::MemRead       888593      1.77%     66.77% # Number of instructions issued per FU type, per thread (Count)
system.cpu.statIssuedInstType_0::MemWrite       188000      0.37%     67.14% # Number of instructions issued per FU type, per thread (Count)
system.cpu.statIssuedInstType_0::FloatMemRead     12670690     25.20%     92.34% # Number of instructions issued per FU type, per thread (Count)
system.cpu.statIssuedInstType_0::FloatMemWrite      3852216      7.66%    100.00% # Number of instructions issued per FU type, per thread (Count)
system.cpu.statIssuedInstType_0::IprAccess            0      0.00%    100.00% # Number of instructions issued per FU type, per thread (Count)
system.cpu.statIssuedInstType_0::InstPrefetch            0      0.00%    100.00% # Number of instructions issued per FU type, per thread (Count)
system.cpu.statIssuedInstType_0::total       50289462                       # Number of instructions issued per FU type, per thread (Count)
system.cpu.issueRate                         0.979091                       # Inst issue rate ((Count/Cycle))
system.cpu.fuBusy                             8214576                       # FU busy when requested (Count)
system.cpu.fuBusyRate                        0.163346                       # FU busy rate (busy events/executed inst) ((Count/Count))
system.cpu.intInstQueueReads                 91947827                       # Number of integer instruction queue reads (Count)
system.cpu.intInstQueueWrites                20226571                       # Number of integer instruction queue writes (Count)
system.cpu.intInstQueueWakeupAccesses        20161341                       # Number of integer instruction queue wakeup accesses (Count)
system.cpu.fpInstQueueReads                  68208676                       # Number of floating instruction queue reads (Count)
system.cpu.fpInstQueueWrites                 29878448                       # Number of floating instruction queue writes (Count)
system.cpu.fpInstQueueWakeupAccesses         29861174                       # Number of floating instruction queue wakeup accesses (Count)
system.cpu.vecInstQueueReads                        0                       # Number of vector instruction queue reads (Count)
system.cpu.vecInstQueueWrites                       0                       # Number of vector instruction queue writes (Count)
system.cpu.vecInstQueueWakeupAccesses               0                       # Number of vector instruction queue wakeup accesses (Count)
system.cpu.intAluAccesses                    20413261                       # Number of integer alu accesses (Count)
system.cpu.fpAluAccesses                     38090745                       # Number of floating point alu accesses (Count)
system.cpu.vecAluAccesses                           0                       # Number of vector alu accesses (Count)
system.cpu.numInsts                          50030395                       # Number of executed instructions (Count)
system.cpu.numLoadInsts                      13333107                       # Number of load instructions executed (Count)
system.cpu.numSquashedInsts                      8117                       # Number of squashed instructions skipped in execute (Count)
system.cpu.numSwp                                   0                       # Number of swp insts executed (Count)
system.cpu.numNop                                   0                       # Number of nop insts executed (Count)
system.cpu.numRefs                           17345538                       # Number of memory reference insts executed (Count)
system.cpu.numBranches                        2614673                       # Number of branches executed (Count)
system.cpu.numStoreInsts                      4012431                       # Number of stores executed (Count)
system.cpu.numRate                           0.974048                       # Inst execution rate ((Count/Cycle))
system.cpu.timesIdled                              27                       # Number of times that the entire CPU went into an idle state and unscheduled itself (Count)
system.cpu.idleCycles                            1890                       # Total number of cycles that the CPU has spent unscheduled due to idling (Cycle)
system.cpu.committedInsts                    50000007                       # Number of Instructions Simulated (Count)
system.cpu.committedOps                      50000007                       # Number of Ops (including micro ops) Simulated (Count)
system.cpu.cpi                               1.027268                       # CPI: Cycles Per Instruction ((Cycle/Count))
system.cpu.totalCpi                          1.027268                       # CPI: Total CPI of All Threads ((Cycle/Count))
system.cpu.ipc                               0.973456                       # IPC: Instructions Per Cycle ((Count/Cycle))
system.cpu.totalIpc                          0.973456                       # IPC: Total IPC of All Threads ((Count/Cycle))
system.cpu.intRegfileReads                   47390463                       # Number of integer regfile reads (Count)
system.cpu.intRegfileWrites                  17359931                       # Number of integer regfile writes (Count)
system.cpu.fpRegfileReads                    34313198                       # Number of floating regfile reads (Count)
system.cpu.fpRegfileWrites                   26036365                       # Number of floating regfile writes (Count)
system.cpu.miscRegfileReads                 603069073                       # number of misc regfile reads (Count)
system.cpu.miscRegfileWrites                 26035343                       # number of misc regfile writes (Count)
system.cpu.lastCommitTick                 25681697500                       # The last tick to commit an instruction (Count)
system.cpu.MemDepUnit__0.insertedLoads       13334719                       # Number of loads inserted to the mem dependence unit. (Count)
system.cpu.MemDepUnit__0.insertedStores       4017215                       # Number of stores inserted to the mem dependence unit. (Count)
system.cpu.MemDepUnit__0.conflictingLoads      1075361                       # Number of conflicting loads. (Count)
system.cpu.MemDepUnit__0.conflictingStores      1049193                       # Number of conflicting stores. (Count)
system.cpu.MemDepUnit__1.insertedLoads              0                       # Number of loads inserted to the mem dependence unit. (Count)
system.cpu.MemDepUnit__1.insertedStores             0                       # Number of stores inserted to the mem dependence unit. (Count)
system.cpu.MemDepUnit__1.conflictingLoads            0                       # Number of conflicting loads. (Count)
system.cpu.MemDepUnit__1.conflictingStores            0                       # Number of conflicting stores. (Count)
system.cpu.MemDepUnit__2.insertedLoads              0                       # Number of loads inserted to the mem dependence unit. (Count)
system.cpu.MemDepUnit__2.insertedStores             0                       # Number of stores inserted to the mem dependence unit. (Count)
system.cpu.MemDepUnit__2.conflictingLoads            0                       # Number of conflicting loads. (Count)
system.cpu.MemDepUnit__2.conflictingStores            0                       # Number of conflicting stores. (Count)
system.cpu.MemDepUnit__3.insertedLoads              0                       # Number of loads inserted to the mem dependence unit. (Count)
system.cpu.MemDepUnit__3.insertedStores             0                       # Number of stores inserted to the mem dependence unit. (Count)
system.cpu.MemDepUnit__3.conflictingLoads            0                       # Number of conflicting loads. (Count)
system.cpu.MemDepUnit__3.conflictingStores            0                       # Number of conflicting stores. (Count)
system.cpu.branchPred.lookups                       0                       # Number of BP lookups (Count)
system.cpu.branchPred.condPredicted                 0                       # Number of conditional branches predicted (Count)
system.cpu.branchPred.condIncorrect              3096                       # Number of conditional branches incorrect (Count)
system.cpu.branchPred.BTBLookups                    0                       # Number of BTB lookups (Count)
system.cpu.branchPred.BTBHits                       0                       # Number of BTB hits (Count)
system.cpu.branchPred.BTBHitRatio                 nan                       # BTB Hit Ratio (Ratio)
system.cpu.branchPred.RASUsed                       0                       # Number of times the RAS was used to get a target. (Count)
system.cpu.branchPred.RASIncorrect                  0                       # Number of incorrect RAS predictions. (Count)
system.cpu.branchPred.indirectLookups               0                       # Number of indirect predictor lookups. (Count)
system.cpu.branchPred.indirectHits                  0                       # Number of indirect target hits. (Count)
system.cpu.branchPred.indirectMisses                0                       # Number of indirect misses. (Count)
system.cpu.branchPred.indirectMispredicted            0                       # Number of mispredicted indirect branches. (Count)
system.cpu.branchPred.stream_tage.coldMisses            0                       # ittage the provider component lookup hit (Count)
system.cpu.branchPred.stream_tage.capacityMisses            0                       # ittage the alternate prediction lookup hit (Count)
system.cpu.branchPred.stream_tage.compulsoryMisses            0                       # ittage the provider component pred hit (Count)
system.cpu.branchPred.stream_tage.providerTableDist::samples      8148327                       # the distribution of provider component (Count)
system.cpu.branchPred.stream_tage.providerTableDist::mean     5.913930                       # the distribution of provider component (Count)
system.cpu.branchPred.stream_tage.providerTableDist::stdev     5.190174                       # the distribution of provider component (Count)
system.cpu.branchPred.stream_tage.providerTableDist::underflows            0      0.00%      0.00% # the distribution of provider component (Count)
system.cpu.branchPred.stream_tage.providerTableDist::0      3223485     39.56%     39.56% # the distribution of provider component (Count)
system.cpu.branchPred.stream_tage.providerTableDist::1        14785      0.18%     39.74% # the distribution of provider component (Count)
system.cpu.branchPred.stream_tage.providerTableDist::2       108318      1.33%     41.07% # the distribution of provider component (Count)
system.cpu.branchPred.stream_tage.providerTableDist::3        81794      1.00%     42.07% # the distribution of provider component (Count)
system.cpu.branchPred.stream_tage.providerTableDist::4        87927      1.08%     43.15% # the distribution of provider component (Count)
system.cpu.branchPred.stream_tage.providerTableDist::5        47487      0.58%     43.74% # the distribution of provider component (Count)
system.cpu.branchPred.stream_tage.providerTableDist::6       202659      2.49%     46.22% # the distribution of provider component (Count)
system.cpu.branchPred.stream_tage.providerTableDist::7       126497      1.55%     47.78% # the distribution of provider component (Count)
system.cpu.branchPred.stream_tage.providerTableDist::8       705657      8.66%     56.44% # the distribution of provider component (Count)
system.cpu.branchPred.stream_tage.providerTableDist::9       201488      2.47%     58.91% # the distribution of provider component (Count)
system.cpu.branchPred.stream_tage.providerTableDist::10      1336301     16.40%     75.31% # the distribution of provider component (Count)
system.cpu.branchPred.stream_tage.providerTableDist::11       333702      4.10%     79.40% # the distribution of provider component (Count)
system.cpu.branchPred.stream_tage.providerTableDist::12      1438911     17.66%     97.06% # the distribution of provider component (Count)
system.cpu.branchPred.stream_tage.providerTableDist::13        88482      1.09%     98.15% # the distribution of provider component (Count)
system.cpu.branchPred.stream_tage.providerTableDist::14       150834      1.85%    100.00% # the distribution of provider component (Count)
system.cpu.branchPred.stream_tage.providerTableDist::15            0      0.00%    100.00% # the distribution of provider component (Count)
system.cpu.branchPred.stream_tage.providerTableDist::16            0      0.00%    100.00% # the distribution of provider component (Count)
system.cpu.branchPred.stream_tage.providerTableDist::17            0      0.00%    100.00% # the distribution of provider component (Count)
system.cpu.branchPred.stream_tage.providerTableDist::18            0      0.00%    100.00% # the distribution of provider component (Count)
system.cpu.branchPred.stream_tage.providerTableDist::19            0      0.00%    100.00% # the distribution of provider component (Count)
system.cpu.branchPred.stream_tage.providerTableDist::20            0      0.00%    100.00% # the distribution of provider component (Count)
system.cpu.branchPred.stream_tage.providerTableDist::21            0      0.00%    100.00% # the distribution of provider component (Count)
system.cpu.branchPred.stream_tage.providerTableDist::overflows            0      0.00%    100.00% # the distribution of provider component (Count)
system.cpu.branchPred.stream_tage.providerTableDist::min_value            0                       # the distribution of provider component (Count)
system.cpu.branchPred.stream_tage.providerTableDist::max_value           14                       # the distribution of provider component (Count)
system.cpu.branchPred.stream_tage.providerTableDist::total      8148327                       # the distribution of provider component (Count)
system.cpu.commit.commitSquashedInsts           52331                       # The number of squashed insts skipped by commit (Count)
system.cpu.commit.commitNonSpecStalls              33                       # The number of times commit has been forced to stall to communicate backwards (Count)
system.cpu.commit.branchMispredicts              3097                       # The number of times a branch was mispredicted (Count)
system.cpu.commit.numCommittedDist::samples     51352710                       # Number of insts commited each cycle (Count)
system.cpu.commit.numCommittedDist::mean     0.973659                       # Number of insts commited each cycle (Count)
system.cpu.commit.numCommittedDist::stdev     2.367573                       # Number of insts commited each cycle (Count)
system.cpu.commit.numCommittedDist::underflows            0      0.00%      0.00% # Number of insts commited each cycle (Count)
system.cpu.commit.numCommittedDist::0        42016703     81.82%     81.82% # Number of insts commited each cycle (Count)
system.cpu.commit.numCommittedDist::1         1408156      2.74%     84.56% # Number of insts commited each cycle (Count)
system.cpu.commit.numCommittedDist::2          780712      1.52%     86.08% # Number of insts commited each cycle (Count)
system.cpu.commit.numCommittedDist::3          399988      0.78%     86.86% # Number of insts commited each cycle (Count)
system.cpu.commit.numCommittedDist::4         1232591      2.40%     89.26% # Number of insts commited each cycle (Count)
system.cpu.commit.numCommittedDist::5          393797      0.77%     90.03% # Number of insts commited each cycle (Count)
system.cpu.commit.numCommittedDist::6          817069      1.59%     91.62% # Number of insts commited each cycle (Count)
system.cpu.commit.numCommittedDist::7          400852      0.78%     92.40% # Number of insts commited each cycle (Count)
system.cpu.commit.numCommittedDist::8         3902842      7.60%    100.00% # Number of insts commited each cycle (Count)
system.cpu.commit.numCommittedDist::overflows            0      0.00%    100.00% # Number of insts commited each cycle (Count)
system.cpu.commit.numCommittedDist::min_value            0                       # Number of insts commited each cycle (Count)
system.cpu.commit.numCommittedDist::max_value            8                       # Number of insts commited each cycle (Count)
system.cpu.commit.numCommittedDist::total     51352710                       # Number of insts commited each cycle (Count)
system.cpu.commit.instsCommitted             50000007                       # Number of instructions committed (Count)
system.cpu.commit.opsCommitted               50000007                       # Number of ops (including micro ops) committed (Count)
system.cpu.commit.memRefs                    17332282                       # Number of memory references committed (Count)
system.cpu.commit.loads                      13320768                       # Number of loads committed (Count)
system.cpu.commit.amos                              0                       # Number of atomic instructions committed (Count)
system.cpu.commit.membars                           0                       # Number of memory barriers committed (Count)
system.cpu.commit.branches                    2611682                       # Number of branches committed (Count)
system.cpu.commit.vectorInstructions                0                       # Number of committed Vector instructions. (Count)
system.cpu.commit.floating                   29860162                       # Number of committed floating point instructions. (Count)
system.cpu.commit.integer                    36405591                       # Number of committed integer instructions. (Count)
system.cpu.commit.functionCalls                     0                       # Number of function calls committed. (Count)
system.cpu.commit.committedInstType_0::No_OpClass           32      0.00%      0.00% # Class of committed instruction (Count)
system.cpu.commit.committedInstType_0::IntAlu     19072970     38.15%     38.15% # Class of committed instruction (Count)
system.cpu.commit.committedInstType_0::IntMult          231      0.00%     38.15% # Class of committed instruction (Count)
system.cpu.commit.committedInstType_0::IntDiv            0      0.00%     38.15% # Class of committed instruction (Count)
system.cpu.commit.committedInstType_0::FloatAdd      5067303     10.13%     48.28% # Class of committed instruction (Count)
system.cpu.commit.committedInstType_0::FloatCmp            0      0.00%     48.28% # Class of committed instruction (Count)
system.cpu.commit.committedInstType_0::FloatCvt           77      0.00%     48.28% # Class of committed instruction (Count)
system.cpu.commit.committedInstType_0::FloatMult      4562509      9.13%     57.41% # Class of committed instruction (Count)
system.cpu.commit.committedInstType_0::FloatMultAcc      3409803      6.82%     64.23% # Class of committed instruction (Count)
system.cpu.commit.committedInstType_0::FloatDiv       276249      0.55%     64.78% # Class of committed instruction (Count)
system.cpu.commit.committedInstType_0::FloatMisc       140431      0.28%     65.06% # Class of committed instruction (Count)
system.cpu.commit.committedInstType_0::FloatSqrt       138120      0.28%     65.34% # Class of committed instruction (Count)
system.cpu.commit.committedInstType_0::SimdAdd            0      0.00%     65.34% # Class of committed instruction (Count)
system.cpu.commit.committedInstType_0::SimdAddAcc            0      0.00%     65.34% # Class of committed instruction (Count)
system.cpu.commit.committedInstType_0::SimdAlu            0      0.00%     65.34% # Class of committed instruction (Count)
system.cpu.commit.committedInstType_0::SimdCmp            0      0.00%     65.34% # Class of committed instruction (Count)
system.cpu.commit.committedInstType_0::SimdCvt            0      0.00%     65.34% # Class of committed instruction (Count)
system.cpu.commit.committedInstType_0::SimdMisc            0      0.00%     65.34% # Class of committed instruction (Count)
system.cpu.commit.committedInstType_0::SimdMult            0      0.00%     65.34% # Class of committed instruction (Count)
system.cpu.commit.committedInstType_0::SimdMultAcc            0      0.00%     65.34% # Class of committed instruction (Count)
system.cpu.commit.committedInstType_0::SimdShift            0      0.00%     65.34% # Class of committed instruction (Count)
system.cpu.commit.committedInstType_0::SimdShiftAcc            0      0.00%     65.34% # Class of committed instruction (Count)
system.cpu.commit.committedInstType_0::SimdDiv            0      0.00%     65.34% # Class of committed instruction (Count)
system.cpu.commit.committedInstType_0::SimdSqrt            0      0.00%     65.34% # Class of committed instruction (Count)
system.cpu.commit.committedInstType_0::SimdFloatAdd            0      0.00%     65.34% # Class of committed instruction (Count)
system.cpu.commit.committedInstType_0::SimdFloatAlu            0      0.00%     65.34% # Class of committed instruction (Count)
system.cpu.commit.committedInstType_0::SimdFloatCmp            0      0.00%     65.34% # Class of committed instruction (Count)
system.cpu.commit.committedInstType_0::SimdFloatCvt            0      0.00%     65.34% # Class of committed instruction (Count)
system.cpu.commit.committedInstType_0::SimdFloatDiv            0      0.00%     65.34% # Class of committed instruction (Count)
system.cpu.commit.committedInstType_0::SimdFloatMisc            0      0.00%     65.34% # Class of committed instruction (Count)
system.cpu.commit.committedInstType_0::SimdFloatMult            0      0.00%     65.34% # Class of committed instruction (Count)
system.cpu.commit.committedInstType_0::SimdFloatMultAcc            0      0.00%     65.34% # Class of committed instruction (Count)
system.cpu.commit.committedInstType_0::SimdFloatSqrt            0      0.00%     65.34% # Class of committed instruction (Count)
system.cpu.commit.committedInstType_0::SimdReduceAdd            0      0.00%     65.34% # Class of committed instruction (Count)
system.cpu.commit.committedInstType_0::SimdReduceAlu            0      0.00%     65.34% # Class of committed instruction (Count)
system.cpu.commit.committedInstType_0::SimdReduceCmp            0      0.00%     65.34% # Class of committed instruction (Count)
system.cpu.commit.committedInstType_0::SimdFloatReduceAdd            0      0.00%     65.34% # Class of committed instruction (Count)
system.cpu.commit.committedInstType_0::SimdFloatReduceCmp            0      0.00%     65.34% # Class of committed instruction (Count)
system.cpu.commit.committedInstType_0::SimdAes            0      0.00%     65.34% # Class of committed instruction (Count)
system.cpu.commit.committedInstType_0::SimdAesMix            0      0.00%     65.34% # Class of committed instruction (Count)
system.cpu.commit.committedInstType_0::SimdSha1Hash            0      0.00%     65.34% # Class of committed instruction (Count)
system.cpu.commit.committedInstType_0::SimdSha1Hash2            0      0.00%     65.34% # Class of committed instruction (Count)
system.cpu.commit.committedInstType_0::SimdSha256Hash            0      0.00%     65.34% # Class of committed instruction (Count)
system.cpu.commit.committedInstType_0::SimdSha256Hash2            0      0.00%     65.34% # Class of committed instruction (Count)
system.cpu.commit.committedInstType_0::SimdShaSigma2            0      0.00%     65.34% # Class of committed instruction (Count)
system.cpu.commit.committedInstType_0::SimdShaSigma3            0      0.00%     65.34% # Class of committed instruction (Count)
system.cpu.commit.committedInstType_0::SimdPredAlu            0      0.00%     65.34% # Class of committed instruction (Count)
system.cpu.commit.committedInstType_0::MemRead       879942      1.76%     67.10% # Class of committed instruction (Count)
system.cpu.commit.committedInstType_0::MemWrite       186670      0.37%     67.47% # Class of committed instruction (Count)
system.cpu.commit.committedInstType_0::FloatMemRead     12440826     24.88%     92.35% # Class of committed instruction (Count)
system.cpu.commit.committedInstType_0::FloatMemWrite      3824844      7.65%    100.00% # Class of committed instruction (Count)
system.cpu.commit.committedInstType_0::IprAccess            0      0.00%    100.00% # Class of committed instruction (Count)
system.cpu.commit.committedInstType_0::InstPrefetch            0      0.00%    100.00% # Class of committed instruction (Count)
system.cpu.commit.committedInstType_0::total     50000007                       # Class of committed instruction (Count)
system.cpu.commit.commitEligibleSamples       3902842                       # number cycles where commit BW limit reached (Cycle)
system.cpu.dcache.demandHits::cpu.data       14779026                       # number of demand (read+write) hits (Count)
system.cpu.dcache.demandHits::total          14779026                       # number of demand (read+write) hits (Count)
system.cpu.dcache.overallHits::cpu.data      14779026                       # number of overall hits (Count)
system.cpu.dcache.overallHits::total         14779026                       # number of overall hits (Count)
system.cpu.dcache.demandMisses::cpu.data      2559297                       # number of demand (read+write) misses (Count)
system.cpu.dcache.demandMisses::total         2559297                       # number of demand (read+write) misses (Count)
system.cpu.dcache.overallMisses::cpu.data      2559297                       # number of overall misses (Count)
system.cpu.dcache.overallMisses::total        2559297                       # number of overall misses (Count)
system.cpu.dcache.demandMissLatency::cpu.data 111871216000                       # number of demand (read+write) miss ticks (Tick)
system.cpu.dcache.demandMissLatency::total 111871216000                       # number of demand (read+write) miss ticks (Tick)
system.cpu.dcache.overallMissLatency::cpu.data 111871216000                       # number of overall miss ticks (Tick)
system.cpu.dcache.overallMissLatency::total 111871216000                       # number of overall miss ticks (Tick)
system.cpu.dcache.demandAccesses::cpu.data     17338323                       # number of demand (read+write) accesses (Count)
system.cpu.dcache.demandAccesses::total      17338323                       # number of demand (read+write) accesses (Count)
system.cpu.dcache.overallAccesses::cpu.data     17338323                       # number of overall (read+write) accesses (Count)
system.cpu.dcache.overallAccesses::total     17338323                       # number of overall (read+write) accesses (Count)
system.cpu.dcache.demandMissRate::cpu.data     0.147609                       # miss rate for demand accesses (Ratio)
system.cpu.dcache.demandMissRate::total      0.147609                       # miss rate for demand accesses (Ratio)
system.cpu.dcache.overallMissRate::cpu.data     0.147609                       # miss rate for overall accesses (Ratio)
system.cpu.dcache.overallMissRate::total     0.147609                       # miss rate for overall accesses (Ratio)
system.cpu.dcache.demandAvgMissLatency::cpu.data 43711.697392                       # average overall miss latency in ticks ((Tick/Count))
system.cpu.dcache.demandAvgMissLatency::total 43711.697392                       # average overall miss latency in ticks ((Tick/Count))
system.cpu.dcache.overallAvgMissLatency::cpu.data 43711.697392                       # average overall miss latency ((Tick/Count))
system.cpu.dcache.overallAvgMissLatency::total 43711.697392                       # average overall miss latency ((Tick/Count))
system.cpu.dcache.blockedCycles::no_mshrs        26125                       # number of cycles access was blocked (Cycle)
system.cpu.dcache.blockedCycles::no_targets           44                       # number of cycles access was blocked (Cycle)
system.cpu.dcache.blockedCauses::no_mshrs          554                       # number of times access was blocked (Count)
system.cpu.dcache.blockedCauses::no_targets            1                       # number of times access was blocked (Count)
system.cpu.dcache.avgBlocked::no_mshrs      47.157040                       # average number of cycles each access was blocked ((Cycle/Count))
system.cpu.dcache.avgBlocked::no_targets           44                       # average number of cycles each access was blocked ((Cycle/Count))
system.cpu.dcache.writebacks::writebacks       259872                       # number of writebacks (Count)
system.cpu.dcache.writebacks::total            259872                       # number of writebacks (Count)
system.cpu.dcache.demandMshrHits::cpu.data      1804338                       # number of demand (read+write) MSHR hits (Count)
system.cpu.dcache.demandMshrHits::total       1804338                       # number of demand (read+write) MSHR hits (Count)
system.cpu.dcache.overallMshrHits::cpu.data      1804338                       # number of overall MSHR hits (Count)
system.cpu.dcache.overallMshrHits::total      1804338                       # number of overall MSHR hits (Count)
system.cpu.dcache.demandMshrMisses::cpu.data       754959                       # number of demand (read+write) MSHR misses (Count)
system.cpu.dcache.demandMshrMisses::total       754959                       # number of demand (read+write) MSHR misses (Count)
system.cpu.dcache.overallMshrMisses::cpu.data       754959                       # number of overall MSHR misses (Count)
system.cpu.dcache.overallMshrMisses::total       754959                       # number of overall MSHR misses (Count)
system.cpu.dcache.overallMshrUncacheable::cpu.data            2                       # number of overall MSHR uncacheable misses (Count)
system.cpu.dcache.overallMshrUncacheable::total            2                       # number of overall MSHR uncacheable misses (Count)
system.cpu.dcache.demandMshrMissLatency::cpu.data  38432412000                       # number of demand (read+write) MSHR miss ticks (Tick)
system.cpu.dcache.demandMshrMissLatency::total  38432412000                       # number of demand (read+write) MSHR miss ticks (Tick)
system.cpu.dcache.overallMshrMissLatency::cpu.data  38432412000                       # number of overall MSHR miss ticks (Tick)
system.cpu.dcache.overallMshrMissLatency::total  38432412000                       # number of overall MSHR miss ticks (Tick)
system.cpu.dcache.demandMshrMissRate::cpu.data     0.043543                       # mshr miss ratio for demand accesses (Ratio)
system.cpu.dcache.demandMshrMissRate::total     0.043543                       # mshr miss ratio for demand accesses (Ratio)
system.cpu.dcache.overallMshrMissRate::cpu.data     0.043543                       # mshr miss ratio for overall accesses (Ratio)
system.cpu.dcache.overallMshrMissRate::total     0.043543                       # mshr miss ratio for overall accesses (Ratio)
system.cpu.dcache.demandAvgMshrMissLatency::cpu.data 50906.621419                       # average overall mshr miss latency ((Tick/Count))
system.cpu.dcache.demandAvgMshrMissLatency::total 50906.621419                       # average overall mshr miss latency ((Tick/Count))
system.cpu.dcache.overallAvgMshrMissLatency::cpu.data 50906.621419                       # average overall mshr miss latency ((Tick/Count))
system.cpu.dcache.overallAvgMshrMissLatency::total 50906.621419                       # average overall mshr miss latency ((Tick/Count))
system.cpu.dcache.replacements                 752911                       # number of replacements (Count)
system.cpu.dcache.ReadReq.hits::cpu.data     11115123                       # number of ReadReq hits (Count)
system.cpu.dcache.ReadReq.hits::total        11115123                       # number of ReadReq hits (Count)
system.cpu.dcache.ReadReq.misses::cpu.data      2211689                       # number of ReadReq misses (Count)
system.cpu.dcache.ReadReq.misses::total       2211689                       # number of ReadReq misses (Count)
system.cpu.dcache.ReadReq.missLatency::cpu.data 110322376000                       # number of ReadReq miss ticks (Tick)
system.cpu.dcache.ReadReq.missLatency::total 110322376000                       # number of ReadReq miss ticks (Tick)
system.cpu.dcache.ReadReq.accesses::cpu.data     13326812                       # number of ReadReq accesses(hits+misses) (Count)
system.cpu.dcache.ReadReq.accesses::total     13326812                       # number of ReadReq accesses(hits+misses) (Count)
system.cpu.dcache.ReadReq.missRate::cpu.data     0.165958                       # miss rate for ReadReq accesses (Ratio)
system.cpu.dcache.ReadReq.missRate::total     0.165958                       # miss rate for ReadReq accesses (Ratio)
system.cpu.dcache.ReadReq.avgMissLatency::cpu.data 49881.505040                       # average ReadReq miss latency ((Tick/Count))
system.cpu.dcache.ReadReq.avgMissLatency::total 49881.505040                       # average ReadReq miss latency ((Tick/Count))
system.cpu.dcache.ReadReq.mshrHits::cpu.data      1553852                       # number of ReadReq MSHR hits (Count)
system.cpu.dcache.ReadReq.mshrHits::total      1553852                       # number of ReadReq MSHR hits (Count)
system.cpu.dcache.ReadReq.mshrMisses::cpu.data       657837                       # number of ReadReq MSHR misses (Count)
system.cpu.dcache.ReadReq.mshrMisses::total       657837                       # number of ReadReq MSHR misses (Count)
system.cpu.dcache.ReadReq.mshrMissLatency::cpu.data  38018370000                       # number of ReadReq MSHR miss ticks (Tick)
system.cpu.dcache.ReadReq.mshrMissLatency::total  38018370000                       # number of ReadReq MSHR miss ticks (Tick)
system.cpu.dcache.ReadReq.mshrMissRate::cpu.data     0.049362                       # mshr miss rate for ReadReq accesses (Ratio)
system.cpu.dcache.ReadReq.mshrMissRate::total     0.049362                       # mshr miss rate for ReadReq accesses (Ratio)
system.cpu.dcache.ReadReq.avgMshrMissLatency::cpu.data 57792.994313                       # average ReadReq mshr miss latency ((Tick/Count))
system.cpu.dcache.ReadReq.avgMshrMissLatency::total 57792.994313                       # average ReadReq mshr miss latency ((Tick/Count))
system.cpu.dcache.WriteReq.hits::cpu.data      3663903                       # number of WriteReq hits (Count)
system.cpu.dcache.WriteReq.hits::total        3663903                       # number of WriteReq hits (Count)
system.cpu.dcache.WriteReq.misses::cpu.data       347608                       # number of WriteReq misses (Count)
system.cpu.dcache.WriteReq.misses::total       347608                       # number of WriteReq misses (Count)
system.cpu.dcache.WriteReq.missLatency::cpu.data   1548840000                       # number of WriteReq miss ticks (Tick)
system.cpu.dcache.WriteReq.missLatency::total   1548840000                       # number of WriteReq miss ticks (Tick)
system.cpu.dcache.WriteReq.accesses::cpu.data      4011511                       # number of WriteReq accesses(hits+misses) (Count)
system.cpu.dcache.WriteReq.accesses::total      4011511                       # number of WriteReq accesses(hits+misses) (Count)
system.cpu.dcache.WriteReq.missRate::cpu.data     0.086653                       # miss rate for WriteReq accesses (Ratio)
system.cpu.dcache.WriteReq.missRate::total     0.086653                       # miss rate for WriteReq accesses (Ratio)
system.cpu.dcache.WriteReq.avgMissLatency::cpu.data  4455.708729                       # average WriteReq miss latency ((Tick/Count))
system.cpu.dcache.WriteReq.avgMissLatency::total  4455.708729                       # average WriteReq miss latency ((Tick/Count))
system.cpu.dcache.WriteReq.mshrHits::cpu.data       250486                       # number of WriteReq MSHR hits (Count)
system.cpu.dcache.WriteReq.mshrHits::total       250486                       # number of WriteReq MSHR hits (Count)
system.cpu.dcache.WriteReq.mshrMisses::cpu.data        97122                       # number of WriteReq MSHR misses (Count)
system.cpu.dcache.WriteReq.mshrMisses::total        97122                       # number of WriteReq MSHR misses (Count)
system.cpu.dcache.WriteReq.mshrUncacheable::cpu.data            2                       # number of WriteReq MSHR uncacheable (Count)
system.cpu.dcache.WriteReq.mshrUncacheable::total            2                       # number of WriteReq MSHR uncacheable (Count)
system.cpu.dcache.WriteReq.mshrMissLatency::cpu.data    414042000                       # number of WriteReq MSHR miss ticks (Tick)
system.cpu.dcache.WriteReq.mshrMissLatency::total    414042000                       # number of WriteReq MSHR miss ticks (Tick)
system.cpu.dcache.WriteReq.mshrMissRate::cpu.data     0.024211                       # mshr miss rate for WriteReq accesses (Ratio)
system.cpu.dcache.WriteReq.mshrMissRate::total     0.024211                       # mshr miss rate for WriteReq accesses (Ratio)
system.cpu.dcache.WriteReq.avgMshrMissLatency::cpu.data  4263.112374                       # average WriteReq mshr miss latency ((Tick/Count))
system.cpu.dcache.WriteReq.avgMshrMissLatency::total  4263.112374                       # average WriteReq mshr miss latency ((Tick/Count))
system.cpu.dcache.power_state.pwrStateResidencyTicks::UNDEFINED  25681697500                       # Cumulative time (in ticks) in various power states (Tick)
system.cpu.dcache.tags.tagsInUse          2044.926345                       # Average ticks per tags in use ((Tick/Count))
system.cpu.dcache.tags.totalRefs             15477738                       # Total number of references to valid blocks. (Count)
system.cpu.dcache.tags.sampledRefs             752911                       # Sample count of references to valid blocks. (Count)
system.cpu.dcache.tags.avgRefs              20.557195                       # Average number of references to valid blocks. ((Count/Count))
system.cpu.dcache.tags.warmupTick              153500                       # The tick when the warmup percentage was hit. (Tick)
system.cpu.dcache.tags.occupancies::cpu.data  2044.926345                       # Average occupied blocks per tick, per requestor ((Count/Tick))
system.cpu.dcache.tags.avgOccs::cpu.data     0.998499                       # Average percentage of cache occupancy ((Ratio/Tick))
system.cpu.dcache.tags.avgOccs::total        0.998499                       # Average percentage of cache occupancy ((Ratio/Tick))
system.cpu.dcache.tags.occupanciesTaskId::1024         2048                       # Occupied blocks per task id (Count)
system.cpu.dcache.tags.ageTaskId_1024::0          243                       # Occupied blocks per task id, per block age (Count)
system.cpu.dcache.tags.ageTaskId_1024::1         1644                       # Occupied blocks per task id, per block age (Count)
system.cpu.dcache.tags.ageTaskId_1024::2          161                       # Occupied blocks per task id, per block age (Count)
system.cpu.dcache.tags.ratioOccsTaskId::1024            1                       # Ratio of occupied blocks and all blocks, per task id (Ratio)
system.cpu.dcache.tags.tagAccesses          139461543                       # Number of tag accesses (Count)
system.cpu.dcache.tags.dataAccesses         139461543                       # Number of data accesses (Count)
system.cpu.dcache.tags.power_state.pwrStateResidencyTicks::UNDEFINED  25681697500                       # Cumulative time (in ticks) in various power states (Tick)
system.cpu.decode.idleCycles                   959657                       # Number of cycles decode is idle (Cycle)
system.cpu.decode.blockedCycles              43831235                       # Number of cycles decode is blocked (Cycle)
system.cpu.decode.runCycles                   4186384                       # Number of cycles decode is running (Cycle)
system.cpu.decode.unblockCycles               2380591                       # Number of cycles decode is unblocking (Cycle)
system.cpu.decode.squashCycles                   3639                       # Number of cycles decode is squashing (Cycle)
system.cpu.decode.branchResolved              2576665                       # Number of times decode resolved a branch (Count)
system.cpu.decode.branchMispred                     2                       # Number of times decode detected a branch misprediction (Count)
system.cpu.decode.decodedInsts               50101919                       # Number of instructions handled by decode (Count)
system.cpu.decode.squashedInsts                     8                       # Number of squashed instructions handled by decode (Count)
system.cpu.dtb_walker_cache.demandHits::cpu.mmu.dtb.walker       704789                       # number of demand (read+write) hits (Count)
system.cpu.dtb_walker_cache.demandHits::total       704789                       # number of demand (read+write) hits (Count)
system.cpu.dtb_walker_cache.overallHits::cpu.mmu.dtb.walker       704789                       # number of overall hits (Count)
system.cpu.dtb_walker_cache.overallHits::total       704789                       # number of overall hits (Count)
system.cpu.dtb_walker_cache.demandMisses::cpu.mmu.dtb.walker        47599                       # number of demand (read+write) misses (Count)
system.cpu.dtb_walker_cache.demandMisses::total        47599                       # number of demand (read+write) misses (Count)
system.cpu.dtb_walker_cache.overallMisses::cpu.mmu.dtb.walker        47599                       # number of overall misses (Count)
system.cpu.dtb_walker_cache.overallMisses::total        47599                       # number of overall misses (Count)
system.cpu.dtb_walker_cache.demandMissLatency::cpu.mmu.dtb.walker   3277990500                       # number of demand (read+write) miss ticks (Tick)
system.cpu.dtb_walker_cache.demandMissLatency::total   3277990500                       # number of demand (read+write) miss ticks (Tick)
system.cpu.dtb_walker_cache.overallMissLatency::cpu.mmu.dtb.walker   3277990500                       # number of overall miss ticks (Tick)
system.cpu.dtb_walker_cache.overallMissLatency::total   3277990500                       # number of overall miss ticks (Tick)
system.cpu.dtb_walker_cache.demandAccesses::cpu.mmu.dtb.walker       752388                       # number of demand (read+write) accesses (Count)
system.cpu.dtb_walker_cache.demandAccesses::total       752388                       # number of demand (read+write) accesses (Count)
system.cpu.dtb_walker_cache.overallAccesses::cpu.mmu.dtb.walker       752388                       # number of overall (read+write) accesses (Count)
system.cpu.dtb_walker_cache.overallAccesses::total       752388                       # number of overall (read+write) accesses (Count)
system.cpu.dtb_walker_cache.demandMissRate::cpu.mmu.dtb.walker     0.063264                       # miss rate for demand accesses (Ratio)
system.cpu.dtb_walker_cache.demandMissRate::total     0.063264                       # miss rate for demand accesses (Ratio)
system.cpu.dtb_walker_cache.overallMissRate::cpu.mmu.dtb.walker     0.063264                       # miss rate for overall accesses (Ratio)
system.cpu.dtb_walker_cache.overallMissRate::total     0.063264                       # miss rate for overall accesses (Ratio)
system.cpu.dtb_walker_cache.demandAvgMissLatency::cpu.mmu.dtb.walker 68866.793420                       # average overall miss latency in ticks ((Tick/Count))
system.cpu.dtb_walker_cache.demandAvgMissLatency::total 68866.793420                       # average overall miss latency in ticks ((Tick/Count))
system.cpu.dtb_walker_cache.overallAvgMissLatency::cpu.mmu.dtb.walker 68866.793420                       # average overall miss latency ((Tick/Count))
system.cpu.dtb_walker_cache.overallAvgMissLatency::total 68866.793420                       # average overall miss latency ((Tick/Count))
system.cpu.dtb_walker_cache.blockedCycles::no_mshrs            0                       # number of cycles access was blocked (Cycle)
system.cpu.dtb_walker_cache.blockedCycles::no_targets            0                       # number of cycles access was blocked (Cycle)
system.cpu.dtb_walker_cache.blockedCauses::no_mshrs            0                       # number of times access was blocked (Count)
system.cpu.dtb_walker_cache.blockedCauses::no_targets            0                       # number of times access was blocked (Count)
system.cpu.dtb_walker_cache.avgBlocked::no_mshrs          nan                       # average number of cycles each access was blocked ((Cycle/Count))
system.cpu.dtb_walker_cache.avgBlocked::no_targets          nan                       # average number of cycles each access was blocked ((Cycle/Count))
system.cpu.dtb_walker_cache.demandMshrMisses::cpu.mmu.dtb.walker        47599                       # number of demand (read+write) MSHR misses (Count)
system.cpu.dtb_walker_cache.demandMshrMisses::total        47599                       # number of demand (read+write) MSHR misses (Count)
system.cpu.dtb_walker_cache.overallMshrMisses::cpu.mmu.dtb.walker        47599                       # number of overall MSHR misses (Count)
system.cpu.dtb_walker_cache.overallMshrMisses::total        47599                       # number of overall MSHR misses (Count)
system.cpu.dtb_walker_cache.demandMshrMissLatency::cpu.mmu.dtb.walker   3230391500                       # number of demand (read+write) MSHR miss ticks (Tick)
system.cpu.dtb_walker_cache.demandMshrMissLatency::total   3230391500                       # number of demand (read+write) MSHR miss ticks (Tick)
system.cpu.dtb_walker_cache.overallMshrMissLatency::cpu.mmu.dtb.walker   3230391500                       # number of overall MSHR miss ticks (Tick)
system.cpu.dtb_walker_cache.overallMshrMissLatency::total   3230391500                       # number of overall MSHR miss ticks (Tick)
system.cpu.dtb_walker_cache.demandMshrMissRate::cpu.mmu.dtb.walker     0.063264                       # mshr miss ratio for demand accesses (Ratio)
system.cpu.dtb_walker_cache.demandMshrMissRate::total     0.063264                       # mshr miss ratio for demand accesses (Ratio)
system.cpu.dtb_walker_cache.overallMshrMissRate::cpu.mmu.dtb.walker     0.063264                       # mshr miss ratio for overall accesses (Ratio)
system.cpu.dtb_walker_cache.overallMshrMissRate::total     0.063264                       # mshr miss ratio for overall accesses (Ratio)
system.cpu.dtb_walker_cache.demandAvgMshrMissLatency::cpu.mmu.dtb.walker 67866.793420                       # average overall mshr miss latency ((Tick/Count))
system.cpu.dtb_walker_cache.demandAvgMshrMissLatency::total 67866.793420                       # average overall mshr miss latency ((Tick/Count))
system.cpu.dtb_walker_cache.overallAvgMshrMissLatency::cpu.mmu.dtb.walker 67866.793420                       # average overall mshr miss latency ((Tick/Count))
system.cpu.dtb_walker_cache.overallAvgMshrMissLatency::total 67866.793420                       # average overall mshr miss latency ((Tick/Count))
system.cpu.dtb_walker_cache.replacements        47583                       # number of replacements (Count)
system.cpu.dtb_walker_cache.ReadReq.hits::cpu.mmu.dtb.walker       704789                       # number of ReadReq hits (Count)
system.cpu.dtb_walker_cache.ReadReq.hits::total       704789                       # number of ReadReq hits (Count)
system.cpu.dtb_walker_cache.ReadReq.misses::cpu.mmu.dtb.walker        47599                       # number of ReadReq misses (Count)
system.cpu.dtb_walker_cache.ReadReq.misses::total        47599                       # number of ReadReq misses (Count)
system.cpu.dtb_walker_cache.ReadReq.missLatency::cpu.mmu.dtb.walker   3277990500                       # number of ReadReq miss ticks (Tick)
system.cpu.dtb_walker_cache.ReadReq.missLatency::total   3277990500                       # number of ReadReq miss ticks (Tick)
system.cpu.dtb_walker_cache.ReadReq.accesses::cpu.mmu.dtb.walker       752388                       # number of ReadReq accesses(hits+misses) (Count)
system.cpu.dtb_walker_cache.ReadReq.accesses::total       752388                       # number of ReadReq accesses(hits+misses) (Count)
system.cpu.dtb_walker_cache.ReadReq.missRate::cpu.mmu.dtb.walker     0.063264                       # miss rate for ReadReq accesses (Ratio)
system.cpu.dtb_walker_cache.ReadReq.missRate::total     0.063264                       # miss rate for ReadReq accesses (Ratio)
system.cpu.dtb_walker_cache.ReadReq.avgMissLatency::cpu.mmu.dtb.walker 68866.793420                       # average ReadReq miss latency ((Tick/Count))
system.cpu.dtb_walker_cache.ReadReq.avgMissLatency::total 68866.793420                       # average ReadReq miss latency ((Tick/Count))
system.cpu.dtb_walker_cache.ReadReq.mshrMisses::cpu.mmu.dtb.walker        47599                       # number of ReadReq MSHR misses (Count)
system.cpu.dtb_walker_cache.ReadReq.mshrMisses::total        47599                       # number of ReadReq MSHR misses (Count)
system.cpu.dtb_walker_cache.ReadReq.mshrMissLatency::cpu.mmu.dtb.walker   3230391500                       # number of ReadReq MSHR miss ticks (Tick)
system.cpu.dtb_walker_cache.ReadReq.mshrMissLatency::total   3230391500                       # number of ReadReq MSHR miss ticks (Tick)
system.cpu.dtb_walker_cache.ReadReq.mshrMissRate::cpu.mmu.dtb.walker     0.063264                       # mshr miss rate for ReadReq accesses (Ratio)
system.cpu.dtb_walker_cache.ReadReq.mshrMissRate::total     0.063264                       # mshr miss rate for ReadReq accesses (Ratio)
system.cpu.dtb_walker_cache.ReadReq.avgMshrMissLatency::cpu.mmu.dtb.walker 67866.793420                       # average ReadReq mshr miss latency ((Tick/Count))
system.cpu.dtb_walker_cache.ReadReq.avgMshrMissLatency::total 67866.793420                       # average ReadReq mshr miss latency ((Tick/Count))
system.cpu.dtb_walker_cache.power_state.pwrStateResidencyTicks::UNDEFINED  25681697500                       # Cumulative time (in ticks) in various power states (Tick)
system.cpu.dtb_walker_cache.tags.tagsInUse    15.996699                       # Average ticks per tags in use ((Tick/Count))
system.cpu.dtb_walker_cache.tags.totalRefs       751752                       # Total number of references to valid blocks. (Count)
system.cpu.dtb_walker_cache.tags.sampledRefs        47583                       # Sample count of references to valid blocks. (Count)
system.cpu.dtb_walker_cache.tags.avgRefs    15.798752                       # Average number of references to valid blocks. ((Count/Count))
system.cpu.dtb_walker_cache.tags.warmupTick      1548500                       # The tick when the warmup percentage was hit. (Tick)
system.cpu.dtb_walker_cache.tags.occupancies::cpu.mmu.dtb.walker    15.996699                       # Average occupied blocks per tick, per requestor ((Count/Tick))
system.cpu.dtb_walker_cache.tags.avgOccs::cpu.mmu.dtb.walker     0.999794                       # Average percentage of cache occupancy ((Ratio/Tick))
system.cpu.dtb_walker_cache.tags.avgOccs::total     0.999794                       # Average percentage of cache occupancy ((Ratio/Tick))
system.cpu.dtb_walker_cache.tags.occupanciesTaskId::1024           16                       # Occupied blocks per task id (Count)
system.cpu.dtb_walker_cache.tags.ageTaskId_1024::0           11                       # Occupied blocks per task id, per block age (Count)
system.cpu.dtb_walker_cache.tags.ageTaskId_1024::1            5                       # Occupied blocks per task id, per block age (Count)
system.cpu.dtb_walker_cache.tags.ratioOccsTaskId::1024            1                       # Ratio of occupied blocks and all blocks, per task id (Ratio)
system.cpu.dtb_walker_cache.tags.tagAccesses      1552375                       # Number of tag accesses (Count)
system.cpu.dtb_walker_cache.tags.dataAccesses      1552375                       # Number of data accesses (Count)
system.cpu.dtb_walker_cache.tags.power_state.pwrStateResidencyTicks::UNDEFINED  25681697500                       # Cumulative time (in ticks) in various power states (Tick)
system.cpu.fetch.icacheStallCycles               4019                       # Number of cycles fetch is stalled on an Icache miss (Cycle)
system.cpu.fetch.insts                       50218509                       # Number of instructions fetch has processed (Count)
system.cpu.fetch.branches                     2594417                       # Number of branches that fetch encountered (Count)
system.cpu.fetch.predictedBranches            2594417                       # Number of branches that fetch has predicted taken (Count)
system.cpu.fetch.cycles                      51353428                       # Number of cycles fetch has run and was not squashing or blocked (Cycle)
system.cpu.fetch.squashCycles                    7282                       # Number of cycles fetch has spent squashing (Cycle)
system.cpu.fetch.tlbCycles                        407                       # Number of cycles fetch has spent waiting for tlb (Cycle)
system.cpu.fetch.icacheWaitRetryStallCycles           11                       # Number of stall cycles due to full MSHR (Cycle)
system.cpu.fetch.cacheLines                   4224728                       # Number of cache lines fetched (Count)
system.cpu.fetch.icacheSquashes                    68                       # Number of outstanding Icache misses that were squashed (Count)
system.cpu.fetch.nisnDist::samples           51361506                       # Number of instructions fetched each cycle (Total) (Count)
system.cpu.fetch.nisnDist::mean              0.977746                       # Number of instructions fetched each cycle (Total) (Count)
system.cpu.fetch.nisnDist::stdev             2.367337                       # Number of instructions fetched each cycle (Total) (Count)
system.cpu.fetch.nisnDist::underflows               0      0.00%      0.00% # Number of instructions fetched each cycle (Total) (Count)
system.cpu.fetch.nisnDist::0                 41607037     81.01%     81.01% # Number of instructions fetched each cycle (Total) (Count)
system.cpu.fetch.nisnDist::1                  1623356      3.16%     84.17% # Number of instructions fetched each cycle (Total) (Count)
system.cpu.fetch.nisnDist::2                  1048679      2.04%     86.21% # Number of instructions fetched each cycle (Total) (Count)
system.cpu.fetch.nisnDist::3                   870261      1.69%     87.91% # Number of instructions fetched each cycle (Total) (Count)
system.cpu.fetch.nisnDist::4                   703440      1.37%     89.27% # Number of instructions fetched each cycle (Total) (Count)
system.cpu.fetch.nisnDist::5                   591931      1.15%     90.43% # Number of instructions fetched each cycle (Total) (Count)
system.cpu.fetch.nisnDist::6                   439317      0.86%     91.28% # Number of instructions fetched each cycle (Total) (Count)
system.cpu.fetch.nisnDist::7                   342185      0.67%     91.95% # Number of instructions fetched each cycle (Total) (Count)
system.cpu.fetch.nisnDist::8                  4135300      8.05%    100.00% # Number of instructions fetched each cycle (Total) (Count)
system.cpu.fetch.nisnDist::overflows                0      0.00%    100.00% # Number of instructions fetched each cycle (Total) (Count)
system.cpu.fetch.nisnDist::min_value                0                       # Number of instructions fetched each cycle (Total) (Count)
system.cpu.fetch.nisnDist::max_value                8                       # Number of instructions fetched each cycle (Total) (Count)
system.cpu.fetch.nisnDist::total             51361506                       # Number of instructions fetched each cycle (Total) (Count)
system.cpu.fetch.branchRate                  0.050511                       # Number of branch fetches per cycle (Ratio)
system.cpu.fetch.rate                        0.977710                       # Number of inst fetches per cycle ((Count/Cycle))
system.cpu.icache.demandHits::cpu.inst        4224611                       # number of demand (read+write) hits (Count)
system.cpu.icache.demandHits::total           4224611                       # number of demand (read+write) hits (Count)
system.cpu.icache.overallHits::cpu.inst       4224611                       # number of overall hits (Count)
system.cpu.icache.overallHits::total          4224611                       # number of overall hits (Count)
system.cpu.icache.demandMisses::cpu.inst          117                       # number of demand (read+write) misses (Count)
system.cpu.icache.demandMisses::total             117                       # number of demand (read+write) misses (Count)
system.cpu.icache.overallMisses::cpu.inst          117                       # number of overall misses (Count)
system.cpu.icache.overallMisses::total            117                       # number of overall misses (Count)
system.cpu.icache.demandMissLatency::cpu.inst      5844500                       # number of demand (read+write) miss ticks (Tick)
system.cpu.icache.demandMissLatency::total      5844500                       # number of demand (read+write) miss ticks (Tick)
system.cpu.icache.overallMissLatency::cpu.inst      5844500                       # number of overall miss ticks (Tick)
system.cpu.icache.overallMissLatency::total      5844500                       # number of overall miss ticks (Tick)
system.cpu.icache.demandAccesses::cpu.inst      4224728                       # number of demand (read+write) accesses (Count)
system.cpu.icache.demandAccesses::total       4224728                       # number of demand (read+write) accesses (Count)
system.cpu.icache.overallAccesses::cpu.inst      4224728                       # number of overall (read+write) accesses (Count)
system.cpu.icache.overallAccesses::total      4224728                       # number of overall (read+write) accesses (Count)
system.cpu.icache.demandMissRate::cpu.inst     0.000028                       # miss rate for demand accesses (Ratio)
system.cpu.icache.demandMissRate::total      0.000028                       # miss rate for demand accesses (Ratio)
system.cpu.icache.overallMissRate::cpu.inst     0.000028                       # miss rate for overall accesses (Ratio)
system.cpu.icache.overallMissRate::total     0.000028                       # miss rate for overall accesses (Ratio)
system.cpu.icache.demandAvgMissLatency::cpu.inst 49952.991453                       # average overall miss latency in ticks ((Tick/Count))
system.cpu.icache.demandAvgMissLatency::total 49952.991453                       # average overall miss latency in ticks ((Tick/Count))
system.cpu.icache.overallAvgMissLatency::cpu.inst 49952.991453                       # average overall miss latency ((Tick/Count))
system.cpu.icache.overallAvgMissLatency::total 49952.991453                       # average overall miss latency ((Tick/Count))
system.cpu.icache.blockedCycles::no_mshrs          490                       # number of cycles access was blocked (Cycle)
system.cpu.icache.blockedCycles::no_targets            0                       # number of cycles access was blocked (Cycle)
system.cpu.icache.blockedCauses::no_mshrs            6                       # number of times access was blocked (Count)
system.cpu.icache.blockedCauses::no_targets            0                       # number of times access was blocked (Count)
system.cpu.icache.avgBlocked::no_mshrs      81.666667                       # average number of cycles each access was blocked ((Cycle/Count))
system.cpu.icache.avgBlocked::no_targets          nan                       # average number of cycles each access was blocked ((Cycle/Count))
system.cpu.icache.demandMshrHits::cpu.inst           52                       # number of demand (read+write) MSHR hits (Count)
system.cpu.icache.demandMshrHits::total            52                       # number of demand (read+write) MSHR hits (Count)
system.cpu.icache.overallMshrHits::cpu.inst           52                       # number of overall MSHR hits (Count)
system.cpu.icache.overallMshrHits::total           52                       # number of overall MSHR hits (Count)
system.cpu.icache.demandMshrMisses::cpu.inst           65                       # number of demand (read+write) MSHR misses (Count)
system.cpu.icache.demandMshrMisses::total           65                       # number of demand (read+write) MSHR misses (Count)
system.cpu.icache.overallMshrMisses::cpu.inst           65                       # number of overall MSHR misses (Count)
system.cpu.icache.overallMshrMisses::total           65                       # number of overall MSHR misses (Count)
system.cpu.icache.demandMshrMissLatency::cpu.inst      3886000                       # number of demand (read+write) MSHR miss ticks (Tick)
system.cpu.icache.demandMshrMissLatency::total      3886000                       # number of demand (read+write) MSHR miss ticks (Tick)
system.cpu.icache.overallMshrMissLatency::cpu.inst      3886000                       # number of overall MSHR miss ticks (Tick)
system.cpu.icache.overallMshrMissLatency::total      3886000                       # number of overall MSHR miss ticks (Tick)
[...]
system.mem_ctrls.dram.bytesPerActivate::stdev   367.520869                       # Bytes accessed per row activation (Byte)
system.mem_ctrls.dram.bytesPerActivate::0-127       145942     43.78%     43.78% # Bytes accessed per row activation (Byte)
system.mem_ctrls.dram.bytesPerActivate::128-255        58179     17.45%     61.23% # Bytes accessed per row activation (Byte)
system.mem_ctrls.dram.bytesPerActivate::256-383        20209      6.06%     67.30% # Bytes accessed per row activation (Byte)
system.mem_ctrls.dram.bytesPerActivate::384-511        15162      4.55%     71.84% # Bytes accessed per row activation (Byte)
system.mem_ctrls.dram.bytesPerActivate::512-639        12596      3.78%     75.62% # Bytes accessed per row activation (Byte)
system.mem_ctrls.dram.bytesPerActivate::640-767        10138      3.04%     78.66% # Bytes accessed per row activation (Byte)
system.mem_ctrls.dram.bytesPerActivate::768-895         8199      2.46%     81.12% # Bytes accessed per row activation (Byte)
system.mem_ctrls.dram.bytesPerActivate::896-1023        12657      3.80%     84.92% # Bytes accessed per row activation (Byte)
system.mem_ctrls.dram.bytesPerActivate::1024-1151        50264     15.08%    100.00% # Bytes accessed per row activation (Byte)
system.mem_ctrls.dram.bytesPerActivate::total       333346                       # Bytes accessed per row activation (Byte)
system.mem_ctrls.dram.bytesRead              77456000                       # Total bytes read (Byte)
system.mem_ctrls.dram.bytesWritten           35854976                       # Total bytes written (Byte)
system.mem_ctrls.dram.avgRdBW             2165.756481                       # Average DRAM read bandwidth in MiBytes/s ((Byte/Second))
system.mem_ctrls.dram.avgWrBW             1002.545273                       # Average DRAM write bandwidth in MiBytes/s ((Byte/Second))
system.mem_ctrls.dram.peakBW                 19207.00                       # Theoretical peak bandwidth in MiByte/s ((Byte/Second))
system.mem_ctrls.dram.busUtil                   16.50                       # Data bus utilization in percentage (Ratio)
system.mem_ctrls.dram.busUtilRead               11.28                       # Data bus utilization in percentage for reads (Ratio)
system.mem_ctrls.dram.busUtilWrite               5.22                       # Data bus utilization in percentage for writes (Ratio)
system.mem_ctrls.dram.pageHitRate               81.17                       # Row buffer hit rate, read and write combined (Ratio)
system.mem_ctrls.dram.power_state.pwrStateResidencyTicks::UNDEFINED  35763947000                       # Cumulative time (in ticks) in various power states (Tick)
system.mem_ctrls.dram.rank0.actEnergy    524202954.912000                       # Energy for activate commands per rank (pJ) (Joule)
system.mem_ctrls.dram.rank0.preEnergy    696929400.686399                       # Energy for precharge commands per rank (pJ) (Joule)
system.mem_ctrls.dram.rank0.readEnergy   2561785739.654371                       # Energy for read commands per rank (pJ) (Joule)
system.mem_ctrls.dram.rank0.writeEnergy  1044410868.480002                       # Energy for write commands per rank (pJ) (Joule)
system.mem_ctrls.dram.rank0.refreshEnergy 6363039441.729904                       # Energy for refresh commands per rank (pJ) (Joule)
system.mem_ctrls.dram.rank0.actBackEnergy 29162215262.073090                       # Energy for active background per rank (pJ) (Joule)
system.mem_ctrls.dram.rank0.preBackEnergy 939578770.099205                       # Energy for precharge background per rank (pJ) (Joule)
system.mem_ctrls.dram.rank0.actPowerDownEnergy            0                       # Energy for active power-down per rank (pJ) (Joule)
system.mem_ctrls.dram.rank0.prePowerDownEnergy            0                       # Energy for precharge power-down per rank (pJ) (Joule)
system.mem_ctrls.dram.rank0.selfRefreshEnergy            0                       # Energy for self refresh per rank (pJ) (Joule)
system.mem_ctrls.dram.rank0.totalEnergy  41292162437.635284                       # Total energy per rank (pJ) (Joule)
system.mem_ctrls.dram.rank0.averagePower  1154.575093                       # Core power per rank (mW) (Watt)
system.mem_ctrls.dram.rank0.totalIdleTime            0                       # Total Idle time Per DRAM Rank (Tick)
system.mem_ctrls.dram.rank0.pwrStateTime::IDLE   1292399000                       # Time in different power states (Tick)
system.mem_ctrls.dram.rank0.pwrStateTime::REF   1607550000                       # Time in different power states (Tick)
system.mem_ctrls.dram.rank0.pwrStateTime::SREF            0                       # Time in different power states (Tick)
system.mem_ctrls.dram.rank0.pwrStateTime::PRE_PDN            0                       # Time in different power states (Tick)
system.mem_ctrls.dram.rank0.pwrStateTime::ACT  32863998000                       # Time in different power states (Tick)
system.mem_ctrls.dram.rank0.pwrStateTime::ACT_PDN            0                       # Time in different power states (Tick)
system.mem_ctrls.dram.rank1.actEnergy    515401836.768000                       # Energy for activate commands per rank (pJ) (Joule)
system.mem_ctrls.dram.rank1.preEnergy    685236719.630403                       # Energy for precharge commands per rank (pJ) (Joule)
system.mem_ctrls.dram.rank1.readEnergy   2528909167.545579                       # Energy for read commands per rank (pJ) (Joule)
system.mem_ctrls.dram.rank1.writeEnergy  1061226379.584003                       # Energy for write commands per rank (pJ) (Joule)
system.mem_ctrls.dram.rank1.refreshEnergy 6363039441.729904                       # Energy for refresh commands per rank (pJ) (Joule)
system.mem_ctrls.dram.rank1.actBackEnergy 29179935075.311436                       # Energy for active background per rank (pJ) (Joule)
system.mem_ctrls.dram.rank1.preBackEnergy 925963546.368009                       # Energy for precharge background per rank (pJ) (Joule)
system.mem_ctrls.dram.rank1.actPowerDownEnergy            0                       # Energy for active power-down per rank (pJ) (Joule)
system.mem_ctrls.dram.rank1.prePowerDownEnergy            0                       # Energy for precharge power-down per rank (pJ) (Joule)
system.mem_ctrls.dram.rank1.selfRefreshEnergy            0                       # Energy for self refresh per rank (pJ) (Joule)
system.mem_ctrls.dram.rank1.totalEnergy  41259712166.937683                       # Total energy per rank (pJ) (Joule)
system.mem_ctrls.dram.rank1.averagePower  1153.667747                       # Core power per rank (mW) (Watt)
system.mem_ctrls.dram.rank1.totalIdleTime            0                       # Total Idle time Per DRAM Rank (Tick)
system.mem_ctrls.dram.rank1.pwrStateTime::IDLE   1270832020                       # Time in different power states (Tick)
system.mem_ctrls.dram.rank1.pwrStateTime::REF   1607550000                       # Time in different power states (Tick)
system.mem_ctrls.dram.rank1.pwrStateTime::SREF            0                       # Time in different power states (Tick)
system.mem_ctrls.dram.rank1.pwrStateTime::PRE_PDN            0                       # Time in different power states (Tick)
system.mem_ctrls.dram.rank1.pwrStateTime::ACT  32885564980                       # Time in different power states (Tick)
system.mem_ctrls.dram.rank1.pwrStateTime::ACT_PDN            0                       # Time in different power states (Tick)
system.mem_ctrls.power_state.pwrStateResidencyTicks::UNDEFINED  35763947000                       # Cumulative time (in ticks) in various power states (Tick)
system.membus.transDist::ReadResp              795670                       # Transaction distribution (Count)
system.membus.transDist::WritebackDirty        560246                       # Transaction distribution (Count)
system.membus.transDist::CleanEvict            649120                       # Transaction distribution (Count)
system.membus.transDist::ReadExReq             414583                       # Transaction distribution (Count)
system.membus.transDist::ReadExResp            414582                       # Transaction distribution (Count)
system.membus.transDist::ReadCleanReq          795671                       # Transaction distribution (Count)
system.membus.transDist::InvalidateReq              1                       # Transaction distribution (Count)
system.membus.pktCount_system.l2.mem_side_port::system.mem_ctrls.port      3629873                       # Packet count per connected requestor and responder (Count)
system.membus.pktCount_system.l2.mem_side_port::total      3629873                       # Packet count per connected requestor and responder (Count)
system.membus.pktCount::total                 3629873                       # Packet count per connected requestor and responder (Count)
system.membus.pktSize_system.l2.mem_side_port::system.mem_ctrls.port    113311872                       # Cumulative packet size per connected requestor and responder (Byte)
system.membus.pktSize_system.l2.mem_side_port::total    113311872                       # Cumulative packet size per connected requestor and responder (Byte)
system.membus.pktSize::total                113311872                       # Cumulative packet size per connected requestor and responder (Byte)
system.membus.snoops                                0                       # Total snoops (Count)
system.membus.snoopTraffic                          0                       # Total snoop traffic (Byte)
system.membus.snoopFanout::samples            1210255                       # Request fanout histogram (Count)
system.membus.snoopFanout::mean                     0                       # Request fanout histogram (Count)
system.membus.snoopFanout::stdev                    0                       # Request fanout histogram (Count)
system.membus.snoopFanout::underflows               0      0.00%      0.00% # Request fanout histogram (Count)
system.membus.snoopFanout::0                  1210255    100.00%    100.00% # Request fanout histogram (Count)
system.membus.snoopFanout::1                        0      0.00%    100.00% # Request fanout histogram (Count)
system.membus.snoopFanout::2                        0      0.00%    100.00% # Request fanout histogram (Count)
system.membus.snoopFanout::overflows                0      0.00%    100.00% # Request fanout histogram (Count)
system.membus.snoopFanout::min_value                0                       # Request fanout histogram (Count)
system.membus.snoopFanout::max_value                0                       # Request fanout histogram (Count)
system.membus.snoopFanout::total              1210255                       # Request fanout histogram (Count)
system.membus.badaddr_responder.power_state.pwrStateResidencyTicks::UNDEFINED  35763947000                       # Cumulative time (in ticks) in various power states (Tick)
system.membus.power_state.pwrStateResidencyTicks::UNDEFINED  35763947000                       # Cumulative time (in ticks) in various power states (Tick)
system.membus.reqLayer4.occupancy          5281011500                       # Layer occupancy (ticks) (Tick)
system.membus.reqLayer4.utilization               0.1                       # Layer utilization (Ratio)
system.membus.respLayer2.occupancy         6393120322                       # Layer occupancy (ticks) (Tick)
system.membus.respLayer2.utilization              0.2                       # Layer utilization (Ratio)
system.membus.snoop_filter.totRequests        2419621                       # Total number of requests made to the snoop filter. (Count)
system.membus.snoop_filter.hitSingleRequests      1209622                       # Number of requests hitting in the snoop filter with a single holder of the requested data. (Count)
system.membus.snoop_filter.hitMultiRequests            0                       # Number of requests hitting in the snoop filter with multiple (>1) holders of the requested data. (Count)
system.membus.snoop_filter.totSnoops                0                       # Total number of snoops made to the snoop filter. (Count)
system.membus.snoop_filter.hitSingleSnoops            0                       # Number of snoops hitting in the snoop filter with a single holder of the requested data. (Count)
system.membus.snoop_filter.hitMultiSnoops            0                       # Number of snoops hitting in the snoop filter with multiple (>1) holders of the requested data. (Count)
system.mmcs.power_state.pwrStateResidencyTicks::UNDEFINED  35763947000                       # Cumulative time (in ticks) in various power states (Tick)
system.tol2bus.transDist::ReadResp             799902                       # Transaction distribution (Count)
system.tol2bus.transDist::WritebackDirty      1128339                       # Transaction distribution (Count)
system.tol2bus.transDist::CleanEvict           649378                       # Transaction distribution (Count)
system.tol2bus.transDist::ReadExReq            417798                       # Transaction distribution (Count)
system.tol2bus.transDist::ReadExResp           417797                       # Transaction distribution (Count)
system.tol2bus.transDist::ReadCleanReq            226                       # Transaction distribution (Count)
system.tol2bus.transDist::ReadSharedReq        799677                       # Transaction distribution (Count)
system.tol2bus.transDist::InvalidateReq             1                       # Transaction distribution (Count)
system.tol2bus.transDist::InvalidateResp            1                       # Transaction distribution (Count)
system.tol2bus.pktCount_system.cpu.icache.mem_side_port::system.l2.cpu_side_port          452                       # Packet count per connected requestor and responder (Count)
system.tol2bus.pktCount_system.cpu.dcache.mem_side_port::system.l2.cpu_side_port      3575330                       # Packet count per connected requestor and responder (Count)
system.tol2bus.pktCount_system.cpu.itb_walker_cache.mem_side_port::system.l2.cpu_side_port           26                       # Packet count per connected requestor and responder (Count)
system.tol2bus.pktCount_system.cpu.dtb_walker_cache.mem_side_port::system.l2.cpu_side_port        77064                       # Packet count per connected requestor and responder (Count)
system.tol2bus.pktCount::total                3652872                       # Packet count per connected requestor and responder (Count)
system.tol2bus.pktSize_system.cpu.icache.mem_side_port::system.l2.cpu_side_port        14464                       # Cumulative packet size per connected requestor and responder (Byte)
system.tol2bus.pktSize_system.cpu.dcache.mem_side_port::system.l2.cpu_side_port    112631488                       # Cumulative packet size per connected requestor and responder (Byte)
system.tol2bus.pktSize_system.cpu.itb_walker_cache.mem_side_port::system.l2.cpu_side_port          640                       # Cumulative packet size per connected requestor and responder (Byte)
system.tol2bus.pktSize_system.cpu.dtb_walker_cache.mem_side_port::system.l2.cpu_side_port      1644032                       # Cumulative packet size per connected requestor and responder (Byte)
system.tol2bus.pktSize::total               114290624                       # Cumulative packet size per connected requestor and responder (Byte)
system.tol2bus.snoops                          560247                       # Total snoops (Count)
system.tol2bus.snoopTraffic                  35855808                       # Total snoop traffic (Byte)
system.tol2bus.snoopFanout::samples           1777949                       # Request fanout histogram (Count)
system.tol2bus.snoopFanout::mean             0.000145                       # Request fanout histogram (Count)
system.tol2bus.snoopFanout::stdev            0.012022                       # Request fanout histogram (Count)
system.tol2bus.snoopFanout::underflows              0      0.00%      0.00% # Request fanout histogram (Count)
system.tol2bus.snoopFanout::0                 1777692     99.99%     99.99% # Request fanout histogram (Count)
system.tol2bus.snoopFanout::1                     257      0.01%    100.00% # Request fanout histogram (Count)
system.tol2bus.snoopFanout::2                       0      0.00%    100.00% # Request fanout histogram (Count)
system.tol2bus.snoopFanout::3                       0      0.00%    100.00% # Request fanout histogram (Count)
system.tol2bus.snoopFanout::4                       0      0.00%    100.00% # Request fanout histogram (Count)
system.tol2bus.snoopFanout::overflows               0      0.00%    100.00% # Request fanout histogram (Count)
system.tol2bus.snoopFanout::min_value               0                       # Request fanout histogram (Count)
system.tol2bus.snoopFanout::max_value               1                       # Request fanout histogram (Count)
system.tol2bus.snoopFanout::total             1777949                       # Request fanout histogram (Count)
system.tol2bus.power_state.pwrStateResidencyTicks::UNDEFINED  35763947000                       # Cumulative time (in ticks) in various power states (Tick)
system.tol2bus.reqLayer0.occupancy         1501642491                       # Layer occupancy (ticks) (Tick)
system.tol2bus.reqLayer0.utilization              0.0                       # Layer utilization (Ratio)
system.tol2bus.respLayer0.occupancy            226000                       # Layer occupancy (ticks) (Tick)
system.tol2bus.respLayer0.utilization             0.0                       # Layer utilization (Ratio)
system.tol2bus.respLayer1.occupancy        1191775500                       # Layer occupancy (ticks) (Tick)
system.tol2bus.respLayer1.utilization             0.0                       # Layer utilization (Ratio)
system.tol2bus.respLayer2.occupancy             10499                       # Layer occupancy (ticks) (Tick)
system.tol2bus.respLayer2.utilization             0.0                       # Layer utilization (Ratio)
system.tol2bus.respLayer3.occupancy          25688000                       # Layer occupancy (ticks) (Tick)
system.tol2bus.respLayer3.utilization             0.0                       # Layer utilization (Ratio)
system.tol2bus.snoop_filter.totRequests       2435184                       # Total number of requests made to the snoop filter. (Count)
system.tol2bus.snoop_filter.hitSingleRequests      1217481                       # Number of requests hitting in the snoop filter with a single holder of the requested data. (Count)
system.tol2bus.snoop_filter.hitMultiRequests          258                       # Number of requests hitting in the snoop filter with multiple (>1) holders of the requested data. (Count)
system.tol2bus.snoop_filter.totSnoops               0                       # Total number of snoops made to the snoop filter. (Count)
system.tol2bus.snoop_filter.hitSingleSnoops            0                       # Number of snoops hitting in the snoop filter with a single holder of the requested data. (Count)
system.tol2bus.snoop_filter.hitMultiSnoops            0                       # Number of snoops hitting in the snoop filter with multiple (>1) holders of the requested data. (Count)
system.uartlite.power_state.pwrStateResidencyTicks::UNDEFINED  35763947000                       # Cumulative time (in ticks) in various power states (Tick)
system.voltage_domain.voltage                       1                       # Voltage in Volts (Volt)
system.workload.inst.arm                            0                       # number of arm instructions executed (Count)
system.workload.inst.quiesce                        0                       # number of quiesce instructions executed (Count)

---------- End Simulation Statistics   ----------
