
---------- Begin Simulation Statistics ----------
simSeconds                                   0.013535                       # Number of seconds simulated (Second)
simTicks                                  13534948500                       # Number of ticks simulated (Tick)
finalTick                                 13534948500                       # Number of ticks from beginning of simulation (restored from checkpoints and never reset) (Tick)
simFreq                                  1000000000000                       # The number of ticks per simulated second ((Tick/Second))
hostSeconds                                   1033.86                       # Real time elapsed on the host (Second)
hostTickRate                                 13091704                       # The number of ticks simulated per host second (ticks/s) ((Tick/Second))
hostMemory                                   23232048                       # Number of bytes of host memory used (Byte)
simInsts                                     50000001                       # Number of instructions simulated (Count)
simOps                                       50000001                       # Number of ops (including micro ops) simulated (Count)
hostInstRate                                    48363                       # Simulator instruction rate (inst/s) ((Count/Second))
hostOpRate                                      48363                       # Simulator op (including micro ops) rate (op/s) ((Count/Second))
system.bridge.power_state.pwrStateResidencyTicks::UNDEFINED  13534948500                       # Cumulative time (in ticks) in various power states (Tick)
system.clk_domain.clock                          1000                       # Clock period in ticks (Tick)
system.cpu.numCycles                         27069906                       # Number of cpu cycles simulated (Cycle)
system.cpu.numWorkItemsStarted                      0                       # Number of work items this cpu started (Count)
system.cpu.numWorkItemsCompleted                    0                       # Number of work items this cpu completed (Count)
system.cpu.instsAdded                        71215478                       # Number of instructions added to the IQ (excludes non-spec) (Count)
system.cpu.nonSpecInstsAdded                       33                       # Number of non-speculative instructions added to the IQ (Count)
system.cpu.instsIssued                       64660667                       # Number of instructions issued (Count)
system.cpu.squashedInstsIssued                 636198                       # Number of squashed instructions issued (Count)
system.cpu.squashedInstsExamined             21215465                       # Number of squashed instructions iterated over during squash; mainly for profiling (Count)
system.cpu.squashedOperandsExamined          12618612                       # Number of squashed operands that are examined and possibly removed from graph (Count)
system.cpu.numIssuedDist::samples            27005255                       # Number of insts issued each cycle (Count)
system.cpu.numIssuedDist::mean               2.394374                       # Number of insts issued each cycle (Count)
system.cpu.numIssuedDist::stdev              2.736347                       # Number of insts issued each cycle (Count)
system.cpu.numIssuedDist::underflows                0      0.00%      0.00% # Number of insts issued each cycle (Count)
system.cpu.numIssuedDist::0                  12584969     46.60%     46.60% # Number of insts issued each cycle (Count)
system.cpu.numIssuedDist::1                   1570050      5.81%     52.42% # Number of insts issued each cycle (Count)
system.cpu.numIssuedDist::2                   1597116      5.91%     58.33% # Number of insts issued each cycle (Count)
system.cpu.numIssuedDist::3                   1856011      6.87%     65.20% # Number of insts issued each cycle (Count)
system.cpu.numIssuedDist::4                   2206802      8.17%     73.37% # Number of insts issued each cycle (Count)
system.cpu.numIssuedDist::5                   2188911      8.11%     81.48% # Number of insts issued each cycle (Count)
system.cpu.numIssuedDist::6                   2030671      7.52%     89.00% # Number of insts issued each cycle (Count)
system.cpu.numIssuedDist::7                   1393237      5.16%     94.16% # Number of insts issued each cycle (Count)
system.cpu.numIssuedDist::8                   1577488      5.84%    100.00% # Number of insts issued each cycle (Count)
system.cpu.numIssuedDist::overflows                 0      0.00%    100.00% # Number of insts issued each cycle (Count)
system.cpu.numIssuedDist::min_value                 0                       # Number of insts issued each cycle (Count)
system.cpu.numIssuedDist::max_value                 8                       # Number of insts issued each cycle (Count)
system.cpu.numIssuedDist::total              27005255                       # Number of insts issued each cycle (Count)
system.cpu.statFuBusy::No_OpClass                   0      0.00%      0.00% # attempts to use FU when none available (Count)
system.cpu.statFuBusy::IntAlu                  422475     15.78%     15.78% # attempts to use FU when none available (Count)
system.cpu.statFuBusy::IntMult                  28208      1.05%     16.83% # attempts to use FU when none available (Count)
system.cpu.statFuBusy::IntDiv                   31277      1.17%     18.00% # attempts to use FU when none available (Count)
system.cpu.statFuBusy::FloatAdd                     0      0.00%     18.00% # attempts to use FU when none available (Count)
system.cpu.statFuBusy::FloatCmp                     0      0.00%     18.00% # attempts to use FU when none available (Count)
system.cpu.statFuBusy::FloatCvt                     0      0.00%     18.00% # attempts to use FU when none available (Count)
system.cpu.statFuBusy::FloatMult                    0      0.00%     18.00% # attempts to use FU when none available (Count)
system.cpu.statFuBusy::FloatMultAcc                 0      0.00%     18.00% # attempts to use FU when none available (Count)
system.cpu.statFuBusy::FloatDiv                     0      0.00%     18.00% # attempts to use FU when none available (Count)
system.cpu.statFuBusy::FloatMisc                    0      0.00%     18.00% # attempts to use FU when none available (Count)
system.cpu.statFuBusy::FloatSqrt                    0      0.00%     18.00% # attempts to use FU when none available (Count)
system.cpu.statFuBusy::SimdAdd                      0      0.00%     18.00% # attempts to use FU when none available (Count)
system.cpu.statFuBusy::SimdAddAcc                   0      0.00%     18.00% # attempts to use FU when none available (Count)
system.cpu.statFuBusy::SimdAlu                      0      0.00%     18.00% # attempts to use FU when none available (Count)
system.cpu.statFuBusy::SimdCmp                      0      0.00%     18.00% # attempts to use FU when none available (Count)
system.cpu.statFuBusy::SimdCvt                      0      0.00%     18.00% # attempts to use FU when none available (Count)
system.cpu.statFuBusy::SimdMisc                     0      0.00%     18.00% # attempts to use FU when none available (Count)
system.cpu.statFuBusy::SimdMult                     0      0.00%     18.00% # attempts to use FU when none available (Count)
system.cpu.statFuBusy::SimdMultAcc                  0      0.00%     18.00% # attempts to use FU when none available (Count)
system.cpu.statFuBusy::SimdShift                    0      0.00%     18.00% # attempts to use FU when none available (Count)
system.cpu.statFuBusy::SimdShiftAcc                 0      0.00%     18.00% # attempts to use FU when none available (Count)
system.cpu.statFuBusy::SimdDiv                      0      0.00%     18.00% # attempts to use FU when none available (Count)
system.cpu.statFuBusy::SimdSqrt                     0      0.00%     18.00% # attempts to use FU when none available (Count)
system.cpu.statFuBusy::SimdFloatAdd                 0      0.00%     18.00% # attempts to use FU when none available (Count)
system.cpu.statFuBusy::SimdFloatAlu                 0      0.00%     18.00% # attempts to use FU when none available (Count)
system.cpu.statFuBusy::SimdFloatCmp                 0      0.00%     18.00% # attempts to use FU when none available (Count)
system.cpu.statFuBusy::SimdFloatCvt                 0      0.00%     18.00% # attempts to use FU when none available (Count)
system.cpu.statFuBusy::SimdFloatDiv                 0      0.00%     18.00% # attempts to use FU when none available (Count)
system.cpu.statFuBusy::SimdFloatMisc                0      0.00%     18.00% # attempts to use FU when none available (Count)
system.cpu.statFuBusy::SimdFloatMult                0      0.00%     18.00% # attempts to use FU when none available (Count)
system.cpu.statFuBusy::SimdFloatMultAcc             0      0.00%     18.00% # attempts to use FU when none available (Count)
system.cpu.statFuBusy::SimdFloatSqrt                0      0.00%     18.00% # attempts to use FU when none available (Count)
system.cpu.statFuBusy::SimdReduceAdd                0      0.00%     18.00% # attempts to use FU when none available (Count)
system.cpu.statFuBusy::SimdReduceAlu                0      0.00%     18.00% # attempts to use FU when none available (Count)
system.cpu.statFuBusy::SimdReduceCmp                0      0.00%     18.00% # attempts to use FU when none available (Count)
system.cpu.statFuBusy::SimdFloatReduceAdd            0      0.00%     18.00% # attempts to use FU when none available (Count)
system.cpu.statFuBusy::SimdFloatReduceCmp            0      0.00%     18.00% # attempts to use FU when none available (Count)
system.cpu.statFuBusy::SimdAes                      0      0.00%     18.00% # attempts to use FU when none available (Count)
system.cpu.statFuBusy::SimdAesMix                   0      0.00%     18.00% # attempts to use FU when none available (Count)
system.cpu.statFuBusy::SimdSha1Hash                 0      0.00%     18.00% # attempts to use FU when none available (Count)
system.cpu.statFuBusy::SimdSha1Hash2                0      0.00%     18.00% # attempts to use FU when none available (Count)
system.cpu.statFuBusy::SimdSha256Hash               0      0.00%     18.00% # attempts to use FU when none available (Count)
system.cpu.statFuBusy::SimdSha256Hash2              0      0.00%     18.00% # attempts to use FU when none available (Count)
system.cpu.statFuBusy::SimdShaSigma2                0      0.00%     18.00% # attempts to use FU when none available (Count)
system.cpu.statFuBusy::SimdShaSigma3                0      0.00%     18.00% # attempts to use FU when none available (Count)
system.cpu.statFuBusy::SimdPredAlu                  0      0.00%     18.00% # attempts to use FU when none available (Count)
system.cpu.statFuBusy::MemRead                1159168     43.28%     61.28% # attempts to use FU when none available (Count)
system.cpu.statFuBusy::MemWrite               1036004     38.68%     99.96% # attempts to use FU when none available (Count)
system.cpu.statFuBusy::FloatMemRead               426      0.02%     99.98% # attempts to use FU when none available (Count)
system.cpu.statFuBusy::FloatMemWrite              519      0.02%    100.00% # attempts to use FU when none available (Count)
system.cpu.statFuBusy::IprAccess                    0      0.00%    100.00% # attempts to use FU when none available (Count)
system.cpu.statFuBusy::InstPrefetch                 0      0.00%    100.00% # attempts to use FU when none available (Count)
system.cpu.statIssuedInstType_0::No_OpClass           41      0.00%      0.00% # Number of instructions issued per FU type, per thread (Count)
system.cpu.statIssuedInstType_0::IntAlu      39435541     60.99%     60.99% # Number of instructions issued per FU type, per thread (Count)
system.cpu.statIssuedInstType_0::IntMult      1203565      1.86%     62.85% # Number of instructions issued per FU type, per thread (Count)
system.cpu.statIssuedInstType_0::IntDiv         28713      0.04%     62.89% # Number of instructions issued per FU type, per thread (Count)
system.cpu.statIssuedInstType_0::FloatAdd            0      0.00%     62.89% # Number of instructions issued per FU type, per thread (Count)
system.cpu.statIssuedInstType_0::FloatCmp          253      0.00%     62.89% # Number of instructions issued per FU type, per thread (Count)
system.cpu.statIssuedInstType_0::FloatCvt          346      0.00%     62.90% # Number of instructions issued per FU type, per thread (Count)
system.cpu.statIssuedInstType_0::FloatMult            1      0.00%     62.90% # Number of instructions issued per FU type, per thread (Count)
system.cpu.statIssuedInstType_0::FloatMultAcc            0      0.00%     62.90% # Number of instructions issued per FU type, per thread (Count)
system.cpu.statIssuedInstType_0::FloatDiv            0      0.00%     62.90% # Number of instructions issued per FU type, per thread (Count)
system.cpu.statIssuedInstType_0::FloatMisc          138      0.00%     62.90% # Number of instructions issued per FU type, per thread (Count)
system.cpu.statIssuedInstType_0::FloatSqrt            0      0.00%     62.90% # Number of instructions issued per FU type, per thread (Count)
system.cpu.statIssuedInstType_0::SimdAdd            0      0.00%     62.90% # Number of instructions issued per FU type, per thread (Count)
system.cpu.statIssuedInstType_0::SimdAddAcc            0      0.00%     62.90% # Number of instructions issued per FU type, per thread (Count)
system.cpu.statIssuedInstType_0::SimdAlu            0      0.00%     62.90% # Number of instructions issued per FU type, per thread (Count)
system.cpu.statIssuedInstType_0::SimdCmp            0      0.00%     62.90% # Number of instructions issued per FU type, per thread (Count)
system.cpu.statIssuedInstType_0::SimdCvt            0      0.00%     62.90% # Number of instructions issued per FU type, per thread (Count)
system.cpu.statIssuedInstType_0::SimdMisc            0      0.00%     62.90% # Number of instructions issued per FU type, per thread (Count)
system.cpu.statIssuedInstType_0::SimdMult            0      0.00%     62.90% # Number of instructions issued per FU type, per thread (Count)
system.cpu.statIssuedInstType_0::SimdMultAcc            0      0.00%     62.90% # Number of instructions issued per FU type, per thread (Count)
system.cpu.statIssuedInstType_0::SimdShift            0      0.00%     62.90% # Number of instructions issued per FU type, per thread (Count)
system.cpu.statIssuedInstType_0::SimdShiftAcc            0      0.00%     62.90% # Number of instructions issued per FU type, per thread (Count)
system.cpu.statIssuedInstType_0::SimdDiv            0      0.00%     62.90% # Number of instructions issued per FU type, per thread (Count)
system.cpu.statIssuedInstType_0::SimdSqrt            0      0.00%     62.90% # Number of instructions issued per FU type, per thread (Count)
system.cpu.statIssuedInstType_0::SimdFloatAdd            0      0.00%     62.90% # Number of instructions issued per FU type, per thread (Count)
system.cpu.statIssuedInstType_0::SimdFloatAlu            0      0.00%     62.90% # Number of instructions issued per FU type, per thread (Count)
system.cpu.statIssuedInstType_0::SimdFloatCmp            0      0.00%     62.90% # Number of instructions issued per FU type, per thread (Count)
system.cpu.statIssuedInstType_0::SimdFloatCvt            0      0.00%     62.90% # Number of instructions issued per FU type, per thread (Count)
system.cpu.statIssuedInstType_0::SimdFloatDiv            0      0.00%     62.90% # Number of instructions issued per FU type, per thread (Count)
system.cpu.statIssuedInstType_0::SimdFloatMisc            0      0.00%     62.90% # Number of instructions issued per FU type, per thread (Count)
system.cpu.statIssuedInstType_0::SimdFloatMult            0      0.00%     62.90% # Number of instructions issued per FU type, per thread (Count)
system.cpu.statIssuedInstType_0::SimdFloatMultAcc            0      0.00%     62.90% # Number of instructions issued per FU type, per thread (Count)
system.cpu.statIssuedInstType_0::SimdFloatSqrt            0      0.00%     62.90% # Number of instructions issued per FU type, per thread (Count)
system.cpu.statIssuedInstType_0::SimdReduceAdd            0      0.00%     62.90% # Number of instructions issued per FU type, per thread (Count)
system.cpu.statIssuedInstType_0::SimdReduceAlu            0      0.00%     62.90% # Number of instructions issued per FU type, per thread (Count)
system.cpu.statIssuedInstType_0::SimdReduceCmp            0      0.00%     62.90% # Number of instructions issued per FU type, per thread (Count)
system.cpu.statIssuedInstType_0::SimdFloatReduceAdd            0      0.00%     62.90% # Number of instructions issued per FU type, per thread (Count)
system.cpu.statIssuedInstType_0::SimdFloatReduceCmp            0      0.00%     62.90% # Number of instructions issued per FU type, per thread (Count)
system.cpu.statIssuedInstType_0::SimdAes            0      0.00%     62.90% # Number of instructions issued per FU type, per thread (Count)
system.cpu.statIssuedInstType_0::SimdAesMix            0      0.00%     62.90% # Number of instructions issued per FU type, per thread (Count)
system.cpu.statIssuedInstType_0::SimdSha1Hash            0      0.00%     62.90% # Number of instructions issued per FU type, per thread (Count)
system.cpu.statIssuedInstType_0::SimdSha1Hash2            0      0.00%     62.90% # Number of instructions issued per FU type, per thread (Count)
system.cpu.statIssuedInstType_0::SimdSha256Hash            0      0.00%     62.90% # Number of instructions issued per FU type, per thread (Count)
system.cpu.statIssuedInstType_0::SimdSha256Hash2            0      0.00%     62.90% # Number of instructions issued per FU type, per thread (Count)
system.cpu.statIssuedInstType_0::SimdShaSigma2            0      0.00%     62.90% # Number of instructions issued per FU type, per thread (Count)
system.cpu.statIssuedInstType_0::SimdShaSigma3            0      0.00%     62.90% # Number of instructions issued per FU type, per thread (Count)
system.cpu.statIssuedInstType_0::SimdPredAlu            0      0.00%     62.90% # Number of instructions issued per FU type, per thread (Count)
system.cpu.statIssuedInstType_0::MemRead     15995259     24.74%     87.63% # Number of instructions issued per FU type, per thread (Count)
system.cpu.statIssuedInstType_0::MemWrite      7993132     12.36%     99.99% # Number of instructions issued per FU type, per thread (Count)
system.cpu.statIssuedInstType_0::FloatMemRead         1593      0.00%    100.00% # Number of instructions issued per FU type, per thread (Count)
system.cpu.statIssuedInstType_0::FloatMemWrite         2085      0.00%    100.00% # Number of instructions issued per FU type, per thread (Count)
system.cpu.statIssuedInstType_0::IprAccess            0      0.00%    100.00% # Number of instructions issued per FU type, per thread (Count)
system.cpu.statIssuedInstType_0::InstPrefetch            0      0.00%    100.00% # Number of instructions issued per FU type, per thread (Count)
system.cpu.statIssuedInstType_0::total       64660667                       # Number of instructions issued per FU type, per thread (Count)
system.cpu.issueRate                         2.388655                       # Inst issue rate ((Count/Cycle))
system.cpu.fuBusy                             2678077                       # FU busy when requested (Count)
system.cpu.fuBusyRate                        0.041417                       # FU busy rate (busy events/executed inst) ((Count/Count))
system.cpu.intInstQueueReads                159630919                       # Number of integer instruction queue reads (Count)
system.cpu.intInstQueueWrites                92433950                       # Number of integer instruction queue writes (Count)
system.cpu.intInstQueueWakeupAccesses        61265594                       # Number of integer instruction queue wakeup accesses (Count)
system.cpu.fpInstQueueReads                      9937                       # Number of floating instruction queue reads (Count)
system.cpu.fpInstQueueWrites                     6019                       # Number of floating instruction queue writes (Count)
system.cpu.fpInstQueueWakeupAccesses             3989                       # Number of floating instruction queue wakeup accesses (Count)
system.cpu.vecInstQueueReads                        0                       # Number of vector instruction queue reads (Count)
system.cpu.vecInstQueueWrites                       0                       # Number of vector instruction queue writes (Count)
system.cpu.vecInstQueueWakeupAccesses               0                       # Number of vector instruction queue wakeup accesses (Count)
system.cpu.intAluAccesses                    67333342                       # Number of integer alu accesses (Count)
system.cpu.fpAluAccesses                         5361                       # Number of floating point alu accesses (Count)
system.cpu.vecAluAccesses                           0                       # Number of vector alu accesses (Count)
system.cpu.numInsts                          62345667                       # Number of executed instructions (Count)
system.cpu.numLoadInsts                      15166073                       # Number of load instructions executed (Count)
system.cpu.numSquashedInsts                   2237734                       # Number of squashed instructions skipped in execute (Count)
system.cpu.numSwp                                   0                       # Number of swp insts executed (Count)
system.cpu.numNop                                   0                       # Number of nop insts executed (Count)
system.cpu.numRefs                           22825396                       # Number of memory reference insts executed (Count)
system.cpu.numBranches                        9837217                       # Number of branches executed (Count)
system.cpu.numStoreInsts                      7659323                       # Number of stores executed (Count)
system.cpu.numRate                           2.303136                       # Inst execution rate ((Count/Cycle))
system.cpu.timesIdled                             731                       # Number of times that the entire CPU went into an idle state and unscheduled itself (Count)
system.cpu.idleCycles                           64651                       # Total number of cycles that the CPU has spent unscheduled due to idling (Cycle)
system.cpu.committedInsts                    50000001                       # Number of Instructions Simulated (Count)
system.cpu.committedOps                      50000001                       # Number of Ops (including micro ops) Simulated (Count)
system.cpu.cpi                               0.541398                       # CPI: Cycles Per Instruction ((Cycle/Count))
system.cpu.totalCpi                          0.541398                       # CPI: Total CPI of All Threads ((Cycle/Count))
system.cpu.ipc                               1.847070                       # IPC: Instructions Per Cycle ((Count/Cycle))
system.cpu.totalIpc                          1.847070                       # IPC: Total IPC of All Threads ((Count/Cycle))
system.cpu.intRegfileReads                   74551784                       # Number of integer regfile reads (Count)
system.cpu.intRegfileWrites                  45100402                       # Number of integer regfile writes (Count)
system.cpu.fpRegfileReads                        2814                       # Number of floating regfile reads (Count)
system.cpu.fpRegfileWrites                       1778                       # Number of floating regfile writes (Count)
system.cpu.miscRegfileReads                 463253789                       # number of misc regfile reads (Count)
system.cpu.miscRegfileWrites                     1861                       # number of misc regfile writes (Count)
system.cpu.lastCommitTick                 13534948500                       # The last tick to commit an instruction (Count)
system.cpu.MemDepUnit__0.insertedLoads       17517377                       # Number of loads inserted to the mem dependence unit. (Count)
system.cpu.MemDepUnit__0.insertedStores       9026329                       # Number of stores inserted to the mem dependence unit. (Count)
system.cpu.MemDepUnit__0.conflictingLoads       885818                       # Number of conflicting loads. (Count)
system.cpu.MemDepUnit__0.conflictingStores      1065605                       # Number of conflicting stores. (Count)
system.cpu.MemDepUnit__1.insertedLoads              0                       # Number of loads inserted to the mem dependence unit. (Count)
system.cpu.MemDepUnit__1.insertedStores             0                       # Number of stores inserted to the mem dependence unit. (Count)
system.cpu.MemDepUnit__1.conflictingLoads            0                       # Number of conflicting loads. (Count)
system.cpu.MemDepUnit__1.conflictingStores            0                       # Number of conflicting stores. (Count)
system.cpu.MemDepUnit__2.insertedLoads              0                       # Number of loads inserted to the mem dependence unit. (Count)
system.cpu.MemDepUnit__2.insertedStores             0                       # Number of stores inserted to the mem dependence unit. (Count)
system.cpu.MemDepUnit__2.conflictingLoads            0                       # Number of conflicting loads. (Count)
system.cpu.MemDepUnit__2.conflictingStores            0                       # Number of conflicting stores. (Count)
system.cpu.MemDepUnit__3.insertedLoads              0                       # Number of loads inserted to the mem dependence unit. (Count)
system.cpu.MemDepUnit__3.insertedStores             0                       # Number of stores inserted to the mem dependence unit. (Count)
system.cpu.MemDepUnit__3.conflictingLoads            0                       # Number of conflicting loads. (Count)
system.cpu.MemDepUnit__3.conflictingStores            0                       # Number of conflicting stores. (Count)
system.cpu.branchPred.lookups                       0                       # Number of BP lookups (Count)
system.cpu.branchPred.condPredicted                 0                       # Number of conditional branches predicted (Count)
system.cpu.branchPred.condIncorrect            675889                       # Number of conditional branches incorrect (Count)
system.cpu.branchPred.BTBLookups                    0                       # Number of BTB lookups (Count)
system.cpu.branchPred.BTBHits                       0                       # Number of BTB hits (Count)
system.cpu.branchPred.BTBHitRatio                 nan                       # BTB Hit Ratio (Ratio)
system.cpu.branchPred.RASUsed                       0                       # Number of times the RAS was used to get a target. (Count)
system.cpu.branchPred.RASIncorrect              99640                       # Number of incorrect RAS predictions. (Count)
system.cpu.branchPred.indirectLookups               0                       # Number of indirect predictor lookups. (Count)
system.cpu.branchPred.indirectHits                  0                       # Number of indirect target hits. (Count)
system.cpu.branchPred.indirectMisses                0                       # Number of indirect misses. (Count)
system.cpu.branchPred.indirectMispredicted        99711                       # Number of mispredicted indirect branches. (Count)
system.cpu.branchPred.stream_tage.coldMisses            0                       # ittage the provider component lookup hit (Count)
system.cpu.branchPred.stream_tage.capacityMisses            0                       # ittage the alternate prediction lookup hit (Count)
system.cpu.branchPred.stream_tage.compulsoryMisses            0                       # ittage the provider component pred hit (Count)
system.cpu.branchPred.stream_tage.providerTableDist::samples     26339764                       # the distribution of provider component (Count)
system.cpu.branchPred.stream_tage.providerTableDist::mean     1.651960                       # the distribution of provider component (Count)
system.cpu.branchPred.stream_tage.providerTableDist::stdev     2.284572                       # the distribution of provider component (Count)
system.cpu.branchPred.stream_tage.providerTableDist::underflows            0      0.00%      0.00% # the distribution of provider component (Count)
system.cpu.branchPred.stream_tage.providerTableDist::0     12339400     46.85%     46.85% # the distribution of provider component (Count)
system.cpu.branchPred.stream_tage.providerTableDist::1      3831113     14.54%     61.39% # the distribution of provider component (Count)
system.cpu.branchPred.stream_tage.providerTableDist::2      3447966     13.09%     74.48% # the distribution of provider component (Count)
system.cpu.branchPred.stream_tage.providerTableDist::3      2549788      9.68%     84.16% # the distribution of provider component (Count)
system.cpu.branchPred.stream_tage.providerTableDist::4      1334504      5.07%     89.23% # the distribution of provider component (Count)
system.cpu.branchPred.stream_tage.providerTableDist::5       719824      2.73%     91.96% # the distribution of provider component (Count)
system.cpu.branchPred.stream_tage.providerTableDist::6       610595      2.32%     94.28% # the distribution of provider component (Count)
system.cpu.branchPred.stream_tage.providerTableDist::7       539013      2.05%     96.33% # the distribution of provider component (Count)
system.cpu.branchPred.stream_tage.providerTableDist::8       442289      1.68%     98.01% # the distribution of provider component (Count)
system.cpu.branchPred.stream_tage.providerTableDist::9       243876      0.93%     98.93% # the distribution of provider component (Count)
system.cpu.branchPred.stream_tage.providerTableDist::10       172472      0.65%     99.59% # the distribution of provider component (Count)
system.cpu.branchPred.stream_tage.providerTableDist::11        48975      0.19%     99.77% # the distribution of provider component (Count)
system.cpu.branchPred.stream_tage.providerTableDist::12        27397      0.10%     99.88% # the distribution of provider component (Count)
system.cpu.branchPred.stream_tage.providerTableDist::13        19112      0.07%     99.95% # the distribution of provider component (Count)
system.cpu.branchPred.stream_tage.providerTableDist::14        13440      0.05%    100.00% # the distribution of provider component (Count)
system.cpu.branchPred.stream_tage.providerTableDist::15            0      0.00%    100.00% # the distribution of provider component (Count)
system.cpu.branchPred.stream_tage.providerTableDist::16            0      0.00%    100.00% # the distribution of provider component (Count)
system.cpu.branchPred.stream_tage.providerTableDist::17            0      0.00%    100.00% # the distribution of provider component (Count)
system.cpu.branchPred.stream_tage.providerTableDist::18            0      0.00%    100.00% # the distribution of provider component (Count)
system.cpu.branchPred.stream_tage.providerTableDist::19            0      0.00%    100.00% # the distribution of provider component (Count)
system.cpu.branchPred.stream_tage.providerTableDist::20            0      0.00%    100.00% # the distribution of provider component (Count)
system.cpu.branchPred.stream_tage.providerTableDist::21            0      0.00%    100.00% # the distribution of provider component (Count)
system.cpu.branchPred.stream_tage.providerTableDist::overflows            0      0.00%    100.00% # the distribution of provider component (Count)
system.cpu.branchPred.stream_tage.providerTableDist::min_value            0                       # the distribution of provider component (Count)
system.cpu.branchPred.stream_tage.providerTableDist::max_value           14                       # the distribution of provider component (Count)
system.cpu.branchPred.stream_tage.providerTableDist::total     26339764                       # the distribution of provider component (Count)
system.cpu.commit.commitSquashedInsts        21218935                       # The number of squashed insts skipped by commit (Count)
system.cpu.commit.commitNonSpecStalls              33                       # The number of times commit has been forced to stall to communicate backwards (Count)
system.cpu.commit.branchMispredicts            775601                       # The number of times a branch was mispredicted (Count)
system.cpu.commit.numCommittedDist::samples     23856633                       # Number of insts commited each cycle (Count)
system.cpu.commit.numCommittedDist::mean     2.095853                       # Number of insts commited each cycle (Count)
system.cpu.commit.numCommittedDist::stdev     2.991874                       # Number of insts commited each cycle (Count)
system.cpu.commit.numCommittedDist::underflows            0      0.00%      0.00% # Number of insts commited each cycle (Count)
system.cpu.commit.numCommittedDist::0        12618020     52.89%     52.89% # Number of insts commited each cycle (Count)
system.cpu.commit.numCommittedDist::1         3066941     12.86%     65.75% # Number of insts commited each cycle (Count)
system.cpu.commit.numCommittedDist::2         1163872      4.88%     70.63% # Number of insts commited each cycle (Count)
system.cpu.commit.numCommittedDist::3          908805      3.81%     74.43% # Number of insts commited each cycle (Count)
system.cpu.commit.numCommittedDist::4          895529      3.75%     78.19% # Number of insts commited each cycle (Count)
system.cpu.commit.numCommittedDist::5          699411      2.93%     81.12% # Number of insts commited each cycle (Count)
system.cpu.commit.numCommittedDist::6          428220      1.79%     82.92% # Number of insts commited each cycle (Count)
system.cpu.commit.numCommittedDist::7          376270      1.58%     84.49% # Number of insts commited each cycle (Count)
system.cpu.commit.numCommittedDist::8         3699565     15.51%    100.00% # Number of insts commited each cycle (Count)
system.cpu.commit.numCommittedDist::overflows            0      0.00%    100.00% # Number of insts commited each cycle (Count)
system.cpu.commit.numCommittedDist::min_value            0                       # Number of insts commited each cycle (Count)
system.cpu.commit.numCommittedDist::max_value            8                       # Number of insts commited each cycle (Count)
system.cpu.commit.numCommittedDist::total     23856633                       # Number of insts commited each cycle (Count)
system.cpu.commit.instsCommitted             50000001                       # Number of instructions committed (Count)
system.cpu.commit.opsCommitted               50000001                       # Number of ops (including micro ops) committed (Count)
system.cpu.commit.memRefs                    18853670                       # Number of memory references committed (Count)
system.cpu.commit.loads                      12017771                       # Number of loads committed (Count)
system.cpu.commit.amos                              0                       # Number of atomic instructions committed (Count)
system.cpu.commit.membars                           0                       # Number of memory barriers committed (Count)
system.cpu.commit.branches                    8079697                       # Number of branches committed (Count)
system.cpu.commit.vectorInstructions                0                       # Number of committed Vector instructions. (Count)
system.cpu.commit.floating                       3727                       # Number of committed floating point instructions. (Count)
system.cpu.commit.integer                    49697689                       # Number of committed integer instructions. (Count)
system.cpu.commit.functionCalls                525853                       # Number of function calls committed. (Count)
system.cpu.commit.committedInstType_0::No_OpClass           32      0.00%      0.00% # Class of committed instruction (Count)
system.cpu.commit.committedInstType_0::IntAlu     30249167     60.50%     60.50% # Class of committed instruction (Count)
system.cpu.commit.committedInstType_0::IntMult       880184      1.76%     62.26% # Class of committed instruction (Count)
system.cpu.commit.committedInstType_0::IntDiv        16329      0.03%     62.29% # Class of committed instruction (Count)
system.cpu.commit.committedInstType_0::FloatAdd            0      0.00%     62.29% # Class of committed instruction (Count)
system.cpu.commit.committedInstType_0::FloatCmp          249      0.00%     62.29% # Class of committed instruction (Count)
system.cpu.commit.committedInstType_0::FloatCvt          238      0.00%     62.29% # Class of committed instruction (Count)
system.cpu.commit.committedInstType_0::FloatMult            1      0.00%     62.29% # Class of committed instruction (Count)
system.cpu.commit.committedInstType_0::FloatMultAcc            0      0.00%     62.29% # Class of committed instruction (Count)
system.cpu.commit.committedInstType_0::FloatDiv            0      0.00%     62.29% # Class of committed instruction (Count)
system.cpu.commit.committedInstType_0::FloatMisc          131      0.00%     62.29% # Class of committed instruction (Count)
system.cpu.commit.committedInstType_0::FloatSqrt            0      0.00%     62.29% # Class of committed instruction (Count)
system.cpu.commit.committedInstType_0::SimdAdd            0      0.00%     62.29% # Class of committed instruction (Count)
system.cpu.commit.committedInstType_0::SimdAddAcc            0      0.00%     62.29% # Class of committed instruction (Count)
system.cpu.commit.committedInstType_0::SimdAlu            0      0.00%     62.29% # Class of committed instruction (Count)
system.cpu.commit.committedInstType_0::SimdCmp            0      0.00%     62.29% # Class of committed instruction (Count)
system.cpu.commit.committedInstType_0::SimdCvt            0      0.00%     62.29% # Class of committed instruction (Count)
system.cpu.commit.committedInstType_0::SimdMisc            0      0.00%     62.29% # Class of committed instruction (Count)
system.cpu.commit.committedInstType_0::SimdMult            0      0.00%     62.29% # Class of committed instruction (Count)
system.cpu.commit.committedInstType_0::SimdMultAcc            0      0.00%     62.29% # Class of committed instruction (Count)
system.cpu.commit.committedInstType_0::SimdShift            0      0.00%     62.29% # Class of committed instruction (Count)
system.cpu.commit.committedInstType_0::SimdShiftAcc            0      0.00%     62.29% # Class of committed instruction (Count)
system.cpu.commit.committedInstType_0::SimdDiv            0      0.00%     62.29% # Class of committed instruction (Count)
system.cpu.commit.committedInstType_0::SimdSqrt            0      0.00%     62.29% # Class of committed instruction (Count)
system.cpu.commit.committedInstType_0::SimdFloatAdd            0      0.00%     62.29% # Class of committed instruction (Count)
system.cpu.commit.committedInstType_0::SimdFloatAlu            0      0.00%     62.29% # Class of committed instruction (Count)
system.cpu.commit.committedInstType_0::SimdFloatCmp            0      0.00%     62.29% # Class of committed instruction (Count)
system.cpu.commit.committedInstType_0::SimdFloatCvt            0      0.00%     62.29% # Class of committed instruction (Count)
system.cpu.commit.committedInstType_0::SimdFloatDiv            0      0.00%     62.29% # Class of committed instruction (Count)
system.cpu.commit.committedInstType_0::SimdFloatMisc            0      0.00%     62.29% # Class of committed instruction (Count)
system.cpu.commit.committedInstType_0::SimdFloatMult            0      0.00%     62.29% # Class of committed instruction (Count)
system.cpu.commit.committedInstType_0::SimdFloatMultAcc            0      0.00%     62.29% # Class of committed instruction (Count)
system.cpu.commit.committedInstType_0::SimdFloatSqrt            0      0.00%     62.29% # Class of committed instruction (Count)
system.cpu.commit.committedInstType_0::SimdReduceAdd            0      0.00%     62.29% # Class of committed instruction (Count)
system.cpu.commit.committedInstType_0::SimdReduceAlu            0      0.00%     62.29% # Class of committed instruction (Count)
system.cpu.commit.committedInstType_0::SimdReduceCmp            0      0.00%     62.29% # Class of committed instruction (Count)
system.cpu.commit.committedInstType_0::SimdFloatReduceAdd            0      0.00%     62.29% # Class of committed instruction (Count)
system.cpu.commit.committedInstType_0::SimdFloatReduceCmp            0      0.00%     62.29% # Class of committed instruction (Count)
system.cpu.commit.committedInstType_0::SimdAes            0      0.00%     62.29% # Class of committed instruction (Count)
system.cpu.commit.committedInstType_0::SimdAesMix            0      0.00%     62.29% # Class of committed instruction (Count)
system.cpu.commit.committedInstType_0::SimdSha1Hash            0      0.00%     62.29% # Class of committed instruction (Count)
system.cpu.commit.committedInstType_0::SimdSha1Hash2            0      0.00%     62.29% # Class of committed instruction (Count)
system.cpu.commit.committedInstType_0::SimdSha256Hash            0      0.00%     62.29% # Class of committed instruction (Count)
system.cpu.commit.committedInstType_0::SimdSha256Hash2            0      0.00%     62.29% # Class of committed instruction (Count)
system.cpu.commit.committedInstType_0::SimdShaSigma2            0      0.00%     62.29% # Class of committed instruction (Count)
system.cpu.commit.committedInstType_0::SimdShaSigma3            0      0.00%     62.29% # Class of committed instruction (Count)
system.cpu.commit.committedInstType_0::SimdPredAlu            0      0.00%     62.29% # Class of committed instruction (Count)
system.cpu.commit.committedInstType_0::MemRead     12016554     24.03%     86.33% # Class of committed instruction (Count)
system.cpu.commit.committedInstType_0::MemWrite      6834008     13.67%     99.99% # Class of committed instruction (Count)
system.cpu.commit.committedInstType_0::FloatMemRead         1217      0.00%    100.00% # Class of committed instruction (Count)
system.cpu.commit.committedInstType_0::FloatMemWrite         1891      0.00%    100.00% # Class of committed instruction (Count)
system.cpu.commit.committedInstType_0::IprAccess            0      0.00%    100.00% # Class of committed instruction (Count)
system.cpu.commit.committedInstType_0::InstPrefetch            0      0.00%    100.00% # Class of committed instruction (Count)
system.cpu.commit.committedInstType_0::total     50000001                       # Class of committed instruction (Count)
system.cpu.commit.commitEligibleSamples       3699565                       # number cycles where commit BW limit reached (Cycle)
system.cpu.dcache.demandHits::cpu.data       20962076                       # number of demand (read+write) hits (Count)
system.cpu.dcache.demandHits::total          20962076                       # number of demand (read+write) hits (Count)
system.cpu.dcache.overallHits::cpu.data      20962076                       # number of overall hits (Count)
system.cpu.dcache.overallHits::total         20962076                       # number of overall hits (Count)
system.cpu.dcache.demandMisses::cpu.data        51067                       # number of demand (read+write) misses (Count)
system.cpu.dcache.demandMisses::total           51067                       # number of demand (read+write) misses (Count)
system.cpu.dcache.overallMisses::cpu.data        51067                       # number of overall misses (Count)
system.cpu.dcache.overallMisses::total          51067                       # number of overall misses (Count)
system.cpu.dcache.demandMissLatency::cpu.data   2348381000                       # number of demand (read+write) miss ticks (Tick)
system.cpu.dcache.demandMissLatency::total   2348381000                       # number of demand (read+write) miss ticks (Tick)
system.cpu.dcache.overallMissLatency::cpu.data   2348381000                       # number of overall miss ticks (Tick)
system.cpu.dcache.overallMissLatency::total   2348381000                       # number of overall miss ticks (Tick)
system.cpu.dcache.demandAccesses::cpu.data     21013143                       # number of demand (read+write) accesses (Count)
system.cpu.dcache.demandAccesses::total      21013143                       # number of demand (read+write) accesses (Count)
system.cpu.dcache.overallAccesses::cpu.data     21013143                       # number of overall (read+write) accesses (Count)
system.cpu.dcache.overallAccesses::total     21013143                       # number of overall (read+write) accesses (Count)
system.cpu.dcache.demandMissRate::cpu.data     0.002430                       # miss rate for demand accesses (Ratio)
system.cpu.dcache.demandMissRate::total      0.002430                       # miss rate for demand accesses (Ratio)
system.cpu.dcache.overallMissRate::cpu.data     0.002430                       # miss rate for overall accesses (Ratio)
system.cpu.dcache.overallMissRate::total     0.002430                       # miss rate for overall accesses (Ratio)
system.cpu.dcache.demandAvgMissLatency::cpu.data 45986.272936                       # average overall miss latency in ticks ((Tick/Count))
system.cpu.dcache.demandAvgMissLatency::total 45986.272936                       # average overall miss latency in ticks ((Tick/Count))
system.cpu.dcache.overallAvgMissLatency::cpu.data 45986.272936                       # average overall miss latency ((Tick/Count))
system.cpu.dcache.overallAvgMissLatency::total 45986.272936                       # average overall miss latency ((Tick/Count))
system.cpu.dcache.blockedCycles::no_mshrs         1020                       # number of cycles access was blocked (Cycle)
system.cpu.dcache.blockedCycles::no_targets         1570                       # number of cycles access was blocked (Cycle)
system.cpu.dcache.blockedCauses::no_mshrs           81                       # number of times access was blocked (Count)
system.cpu.dcache.blockedCauses::no_targets           28                       # number of times access was blocked (Count)
system.cpu.dcache.avgBlocked::no_mshrs      12.592593                       # average number of cycles each access was blocked ((Cycle/Count))
system.cpu.dcache.avgBlocked::no_targets    56.071429                       # average number of cycles each access was blocked ((Cycle/Count))
system.cpu.dcache.writebacks::writebacks        18322                       # number of writebacks (Count)
system.cpu.dcache.writebacks::total             18322                       # number of writebacks (Count)
system.cpu.dcache.demandMshrHits::cpu.data        24837                       # number of demand (read+write) MSHR hits (Count)
system.cpu.dcache.demandMshrHits::total         24837                       # number of demand (read+write) MSHR hits (Count)
system.cpu.dcache.overallMshrHits::cpu.data        24837                       # number of overall MSHR hits (Count)
system.cpu.dcache.overallMshrHits::total        24837                       # number of overall MSHR hits (Count)
system.cpu.dcache.demandMshrMisses::cpu.data        26230                       # number of demand (read+write) MSHR misses (Count)
system.cpu.dcache.demandMshrMisses::total        26230                       # number of demand (read+write) MSHR misses (Count)
system.cpu.dcache.overallMshrMisses::cpu.data        26230                       # number of overall MSHR misses (Count)
system.cpu.dcache.overallMshrMisses::total        26230                       # number of overall MSHR misses (Count)
system.cpu.dcache.overallMshrUncacheable::cpu.data            2                       # number of overall MSHR uncacheable misses (Count)
system.cpu.dcache.overallMshrUncacheable::total            2                       # number of overall MSHR uncacheable misses (Count)
system.cpu.dcache.demandMshrMissLatency::cpu.data   1493537500                       # number of demand (read+write) MSHR miss ticks (Tick)
system.cpu.dcache.demandMshrMissLatency::total   1493537500                       # number of demand (read+write) MSHR miss ticks (Tick)
system.cpu.dcache.overallMshrMissLatency::cpu.data   1493537500                       # number of overall MSHR miss ticks (Tick)
system.cpu.dcache.overallMshrMissLatency::total   1493537500                       # number of overall MSHR miss ticks (Tick)
system.cpu.dcache.demandMshrMissRate::cpu.data     0.001248                       # mshr miss ratio for demand accesses (Ratio)
system.cpu.dcache.demandMshrMissRate::total     0.001248                       # mshr miss ratio for demand accesses (Ratio)
system.cpu.dcache.overallMshrMissRate::cpu.data     0.001248                       # mshr miss ratio for overall accesses (Ratio)
system.cpu.dcache.overallMshrMissRate::total     0.001248                       # mshr miss ratio for overall accesses (Ratio)
system.cpu.dcache.demandAvgMshrMissLatency::cpu.data 56940.049562                       # average overall mshr miss latency ((Tick/Count))
system.cpu.dcache.demandAvgMshrMissLatency::total 56940.049562                       # average overall mshr miss latency ((Tick/Count))
system.cpu.dcache.overallAvgMshrMissLatency::cpu.data 56940.049562                       # average overall mshr miss latency ((Tick/Count))
system.cpu.dcache.overallAvgMshrMissLatency::total 56940.049562                       # average overall mshr miss latency ((Tick/Count))
system.cpu.dcache.replacements                  24182                       # number of replacements (Count)
system.cpu.dcache.ReadReq.hits::cpu.data     14146188                       # number of ReadReq hits (Count)
system.cpu.dcache.ReadReq.hits::total        14146188                       # number of ReadReq hits (Count)
system.cpu.dcache.ReadReq.misses::cpu.data        31058                       # number of ReadReq misses (Count)
system.cpu.dcache.ReadReq.misses::total         31058                       # number of ReadReq misses (Count)
system.cpu.dcache.ReadReq.missLatency::cpu.data   1820493000                       # number of ReadReq miss ticks (Tick)
system.cpu.dcache.ReadReq.missLatency::total   1820493000                       # number of ReadReq miss ticks (Tick)
system.cpu.dcache.ReadReq.accesses::cpu.data     14177246                       # number of ReadReq accesses(hits+misses) (Count)
system.cpu.dcache.ReadReq.accesses::total     14177246                       # number of ReadReq accesses(hits+misses) (Count)
system.cpu.dcache.ReadReq.missRate::cpu.data     0.002191                       # miss rate for ReadReq accesses (Ratio)
system.cpu.dcache.ReadReq.missRate::total     0.002191                       # miss rate for ReadReq accesses (Ratio)
system.cpu.dcache.ReadReq.avgMissLatency::cpu.data 58615.912164                       # average ReadReq miss latency ((Tick/Count))
system.cpu.dcache.ReadReq.avgMissLatency::total 58615.912164                       # average ReadReq miss latency ((Tick/Count))
system.cpu.dcache.ReadReq.mshrHits::cpu.data        10671                       # number of ReadReq MSHR hits (Count)
system.cpu.dcache.ReadReq.mshrHits::total        10671                       # number of ReadReq MSHR hits (Count)
system.cpu.dcache.ReadReq.mshrMisses::cpu.data        20387                       # number of ReadReq MSHR misses (Count)
system.cpu.dcache.ReadReq.mshrMisses::total        20387                       # number of ReadReq MSHR misses (Count)
system.cpu.dcache.ReadReq.mshrMissLatency::cpu.data   1316600500                       # number of ReadReq MSHR miss ticks (Tick)
system.cpu.dcache.ReadReq.mshrMissLatency::total   1316600500                       # number of ReadReq MSHR miss ticks (Tick)
system.cpu.dcache.ReadReq.mshrMissRate::cpu.data     0.001438                       # mshr miss rate for ReadReq accesses (Ratio)
system.cpu.dcache.ReadReq.mshrMissRate::total     0.001438                       # mshr miss rate for ReadReq accesses (Ratio)
system.cpu.dcache.ReadReq.avgMshrMissLatency::cpu.data 64580.394369                       # average ReadReq mshr miss latency ((Tick/Count))
system.cpu.dcache.ReadReq.avgMshrMissLatency::total 64580.394369                       # average ReadReq mshr miss latency ((Tick/Count))
system.cpu.dcache.WriteReq.hits::cpu.data      6815888                       # number of WriteReq hits (Count)
system.cpu.dcache.WriteReq.hits::total        6815888                       # number of WriteReq hits (Count)
system.cpu.dcache.WriteReq.misses::cpu.data        20009                       # number of WriteReq misses (Count)
system.cpu.dcache.WriteReq.misses::total        20009                       # number of WriteReq misses (Count)
system.cpu.dcache.WriteReq.missLatency::cpu.data    527888000                       # number of WriteReq miss ticks (Tick)
system.cpu.dcache.WriteReq.missLatency::total    527888000                       # number of WriteReq miss ticks (Tick)
system.cpu.dcache.WriteReq.accesses::cpu.data      6835897                       # number of WriteReq accesses(hits+misses) (Count)
system.cpu.dcache.WriteReq.accesses::total      6835897                       # number of WriteReq accesses(hits+misses) (Count)
system.cpu.dcache.WriteReq.missRate::cpu.data     0.002927                       # miss rate for WriteReq accesses (Ratio)
system.cpu.dcache.WriteReq.missRate::total     0.002927                       # miss rate for WriteReq accesses (Ratio)
system.cpu.dcache.WriteReq.avgMissLatency::cpu.data 26382.527862                       # average WriteReq miss latency ((Tick/Count))
system.cpu.dcache.WriteReq.avgMissLatency::total 26382.527862                       # average WriteReq miss latency ((Tick/Count))
system.cpu.dcache.WriteReq.mshrHits::cpu.data        14166                       # number of WriteReq MSHR hits (Count)
system.cpu.dcache.WriteReq.mshrHits::total        14166                       # number of WriteReq MSHR hits (Count)
system.cpu.dcache.WriteReq.mshrMisses::cpu.data         5843                       # number of WriteReq MSHR misses (Count)
system.cpu.dcache.WriteReq.mshrMisses::total         5843                       # number of WriteReq MSHR misses (Count)
system.cpu.dcache.WriteReq.mshrUncacheable::cpu.data            2                       # number of WriteReq MSHR uncacheable (Count)
system.cpu.dcache.WriteReq.mshrUncacheable::total            2                       # number of WriteReq MSHR uncacheable (Count)
system.cpu.dcache.WriteReq.mshrMissLatency::cpu.data    176937000                       # number of WriteReq MSHR miss ticks (Tick)
system.cpu.dcache.WriteReq.mshrMissLatency::total    176937000                       # number of WriteReq MSHR miss ticks (Tick)
system.cpu.dcache.WriteReq.mshrMissRate::cpu.data     0.000855                       # mshr miss rate for WriteReq accesses (Ratio)
system.cpu.dcache.WriteReq.mshrMissRate::total     0.000855                       # mshr miss rate for WriteReq accesses (Ratio)
system.cpu.dcache.WriteReq.avgMshrMissLatency::cpu.data 30281.875749                       # average WriteReq mshr miss latency ((Tick/Count))
system.cpu.dcache.WriteReq.avgMshrMissLatency::total 30281.875749                       # average WriteReq mshr miss latency ((Tick/Count))
system.cpu.dcache.power_state.pwrStateResidencyTicks::UNDEFINED  13534948500                       # Cumulative time (in ticks) in various power states (Tick)
system.cpu.dcache.tags.tagsInUse          2005.969712                       # Average ticks per tags in use ((Tick/Count))
system.cpu.dcache.tags.totalRefs             13360451                       # Total number of references to valid blocks. (Count)
system.cpu.dcache.tags.sampledRefs              24182                       # Sample count of references to valid blocks. (Count)
system.cpu.dcache.tags.avgRefs             552.495699                       # Average number of references to valid blocks. ((Count/Count))
system.cpu.dcache.tags.warmupTick              153500                       # The tick when the warmup percentage was hit. (Tick)
system.cpu.dcache.tags.occupancies::cpu.data  2005.969712                       # Average occupied blocks per tick, per requestor ((Count/Tick))
system.cpu.dcache.tags.avgOccs::cpu.data     0.979477                       # Average percentage of cache occupancy ((Ratio/Tick))
system.cpu.dcache.tags.avgOccs::total        0.979477                       # Average percentage of cache occupancy ((Ratio/Tick))
system.cpu.dcache.tags.occupanciesTaskId::1024         2048                       # Occupied blocks per task id (Count)
system.cpu.dcache.tags.ageTaskId_1024::0           11                       # Occupied blocks per task id, per block age (Count)
system.cpu.dcache.tags.ageTaskId_1024::1          115                       # Occupied blocks per task id, per block age (Count)
system.cpu.dcache.tags.ageTaskId_1024::2         1190                       # Occupied blocks per task id, per block age (Count)
system.cpu.dcache.tags.ageTaskId_1024::3          673                       # Occupied blocks per task id, per block age (Count)
system.cpu.dcache.tags.ageTaskId_1024::4           59                       # Occupied blocks per task id, per block age (Count)
system.cpu.dcache.tags.ratioOccsTaskId::1024            1                       # Ratio of occupied blocks and all blocks, per task id (Ratio)
system.cpu.dcache.tags.tagAccesses          168131374                       # Number of tag accesses (Count)
system.cpu.dcache.tags.dataAccesses         168131374                       # Number of data accesses (Count)
system.cpu.dcache.tags.power_state.pwrStateResidencyTicks::UNDEFINED  13534948500                       # Cumulative time (in ticks) in various power states (Tick)
system.cpu.decode.idleCycles                  2576468                       # Number of cycles decode is idle (Cycle)
system.cpu.decode.blockedCycles               9087678                       # Number of cycles decode is blocked (Cycle)
system.cpu.decode.runCycles                  13780204                       # Number of cycles decode is running (Cycle)
system.cpu.decode.unblockCycles                778301                       # Number of cycles decode is unblocking (Cycle)
system.cpu.decode.squashCycles                 782604                       # Number of cycles decode is squashing (Cycle)
system.cpu.decode.branchResolved              5968719                       # Number of times decode resolved a branch (Count)
system.cpu.decode.branchMispred                 36695                       # Number of times decode detected a branch misprediction (Count)
system.cpu.decode.decodedInsts               81864564                       # Number of instructions handled by decode (Count)
system.cpu.decode.squashedInsts                205590                       # Number of squashed instructions handled by decode (Count)
system.cpu.dtb_walker_cache.demandHits::cpu.mmu.dtb.walker        89475                       # number of demand (read+write) hits (Count)
system.cpu.dtb_walker_cache.demandHits::total        89475                       # number of demand (read+write) hits (Count)
system.cpu.dtb_walker_cache.overallHits::cpu.mmu.dtb.walker        89475                       # number of overall hits (Count)
system.cpu.dtb_walker_cache.overallHits::total        89475                       # number of overall hits (Count)
system.cpu.dtb_walker_cache.demandMisses::cpu.mmu.dtb.walker        72222                       # number of demand (read+write) misses (Count)
system.cpu.dtb_walker_cache.demandMisses::total        72222                       # number of demand (read+write) misses (Count)
system.cpu.dtb_walker_cache.overallMisses::cpu.mmu.dtb.walker        72222                       # number of overall misses (Count)
system.cpu.dtb_walker_cache.overallMisses::total        72222                       # number of overall misses (Count)
system.cpu.dtb_walker_cache.demandMissLatency::cpu.mmu.dtb.walker   4496518000                       # number of demand (read+write) miss ticks (Tick)
system.cpu.dtb_walker_cache.demandMissLatency::total   4496518000                       # number of demand (read+write) miss ticks (Tick)
system.cpu.dtb_walker_cache.overallMissLatency::cpu.mmu.dtb.walker   4496518000                       # number of overall miss ticks (Tick)
system.cpu.dtb_walker_cache.overallMissLatency::total   4496518000                       # number of overall miss ticks (Tick)
system.cpu.dtb_walker_cache.demandAccesses::cpu.mmu.dtb.walker       161697                       # number of demand (read+write) accesses (Count)
system.cpu.dtb_walker_cache.demandAccesses::total       161697                       # number of demand (read+write) accesses (Count)
system.cpu.dtb_walker_cache.overallAccesses::cpu.mmu.dtb.walker       161697                       # number of overall (read+write) accesses (Count)
system.cpu.dtb_walker_cache.overallAccesses::total       161697                       # number of overall (read+write) accesses (Count)
system.cpu.dtb_walker_cache.demandMissRate::cpu.mmu.dtb.walker     0.446650                       # miss rate for demand accesses (Ratio)
system.cpu.dtb_walker_cache.demandMissRate::total     0.446650                       # miss rate for demand accesses (Ratio)
system.cpu.dtb_walker_cache.overallMissRate::cpu.mmu.dtb.walker     0.446650                       # miss rate for overall accesses (Ratio)
system.cpu.dtb_walker_cache.overallMissRate::total     0.446650                       # miss rate for overall accesses (Ratio)
system.cpu.dtb_walker_cache.demandAvgMissLatency::cpu.mmu.dtb.walker 62259.671568                       # average overall miss latency in ticks ((Tick/Count))
system.cpu.dtb_walker_cache.demandAvgMissLatency::total 62259.671568                       # average overall miss latency in ticks ((Tick/Count))
system.cpu.dtb_walker_cache.overallAvgMissLatency::cpu.mmu.dtb.walker 62259.671568                       # average overall miss latency ((Tick/Count))
system.cpu.dtb_walker_cache.overallAvgMissLatency::total 62259.671568                       # average overall miss latency ((Tick/Count))
system.cpu.dtb_walker_cache.blockedCycles::no_mshrs            0                       # number of cycles access was blocked (Cycle)
system.cpu.dtb_walker_cache.blockedCycles::no_targets            0                       # number of cycles access was blocked (Cycle)
system.cpu.dtb_walker_cache.blockedCauses::no_mshrs            0                       # number of times access was blocked (Count)
system.cpu.dtb_walker_cache.blockedCauses::no_targets            0                       # number of times access was blocked (Count)
system.cpu.dtb_walker_cache.avgBlocked::no_mshrs          nan                       # average number of cycles each access was blocked ((Cycle/Count))
system.cpu.dtb_walker_cache.avgBlocked::no_targets          nan                       # average number of cycles each access was blocked ((Cycle/Count))
system.cpu.dtb_walker_cache.demandMshrMisses::cpu.mmu.dtb.walker        72222                       # number of demand (read+write) MSHR misses (Count)
system.cpu.dtb_walker_cache.demandMshrMisses::total        72222                       # number of demand (read+write) MSHR misses (Count)
system.cpu.dtb_walker_cache.overallMshrMisses::cpu.mmu.dtb.walker        72222                       # number of overall MSHR misses (Count)
system.cpu.dtb_walker_cache.overallMshrMisses::total        72222                       # number of overall MSHR misses (Count)
system.cpu.dtb_walker_cache.demandMshrMissLatency::cpu.mmu.dtb.walker   4424296000                       # number of demand (read+write) MSHR miss ticks (Tick)
system.cpu.dtb_walker_cache.demandMshrMissLatency::total   4424296000                       # number of demand (read+write) MSHR miss ticks (Tick)
system.cpu.dtb_walker_cache.overallMshrMissLatency::cpu.mmu.dtb.walker   4424296000                       # number of overall MSHR miss ticks (Tick)
system.cpu.dtb_walker_cache.overallMshrMissLatency::total   4424296000                       # number of overall MSHR miss ticks (Tick)
system.cpu.dtb_walker_cache.demandMshrMissRate::cpu.mmu.dtb.walker     0.446650                       # mshr miss ratio for demand accesses (Ratio)
system.cpu.dtb_walker_cache.demandMshrMissRate::total     0.446650                       # mshr miss ratio for demand accesses (Ratio)
system.cpu.dtb_walker_cache.overallMshrMissRate::cpu.mmu.dtb.walker     0.446650                       # mshr miss ratio for overall accesses (Ratio)
system.cpu.dtb_walker_cache.overallMshrMissRate::total     0.446650                       # mshr miss ratio for overall accesses (Ratio)
system.cpu.dtb_walker_cache.demandAvgMshrMissLatency::cpu.mmu.dtb.walker 61259.671568                       # average overall mshr miss latency ((Tick/Count))
system.cpu.dtb_walker_cache.demandAvgMshrMissLatency::total 61259.671568                       # average overall mshr miss latency ((Tick/Count))
system.cpu.dtb_walker_cache.overallAvgMshrMissLatency::cpu.mmu.dtb.walker 61259.671568                       # average overall mshr miss latency ((Tick/Count))
system.cpu.dtb_walker_cache.overallAvgMshrMissLatency::total 61259.671568                       # average overall mshr miss latency ((Tick/Count))
system.cpu.dtb_walker_cache.replacements        72206                       # number of replacements (Count)
system.cpu.dtb_walker_cache.ReadReq.hits::cpu.mmu.dtb.walker        89475                       # number of ReadReq hits (Count)
system.cpu.dtb_walker_cache.ReadReq.hits::total        89475                       # number of ReadReq hits (Count)
system.cpu.dtb_walker_cache.ReadReq.misses::cpu.mmu.dtb.walker        72222                       # number of ReadReq misses (Count)
system.cpu.dtb_walker_cache.ReadReq.misses::total        72222                       # number of ReadReq misses (Count)
system.cpu.dtb_walker_cache.ReadReq.missLatency::cpu.mmu.dtb.walker   4496518000                       # number of ReadReq miss ticks (Tick)
system.cpu.dtb_walker_cache.ReadReq.missLatency::total   4496518000                       # number of ReadReq miss ticks (Tick)
system.cpu.dtb_walker_cache.ReadReq.accesses::cpu.mmu.dtb.walker       161697                       # number of ReadReq accesses(hits+misses) (Count)
system.cpu.dtb_walker_cache.ReadReq.accesses::total       161697                       # number of ReadReq accesses(hits+misses) (Count)
system.cpu.dtb_walker_cache.ReadReq.missRate::cpu.mmu.dtb.walker     0.446650                       # miss rate for ReadReq accesses (Ratio)
system.cpu.dtb_walker_cache.ReadReq.missRate::total     0.446650                       # miss rate for ReadReq accesses (Ratio)
system.cpu.dtb_walker_cache.ReadReq.avgMissLatency::cpu.mmu.dtb.walker 62259.671568                       # average ReadReq miss latency ((Tick/Count))
system.cpu.dtb_walker_cache.ReadReq.avgMissLatency::total 62259.671568                       # average ReadReq miss latency ((Tick/Count))
system.cpu.dtb_walker_cache.ReadReq.mshrMisses::cpu.mmu.dtb.walker        72222                       # number of ReadReq MSHR misses (Count)
system.cpu.dtb_walker_cache.ReadReq.mshrMisses::total        72222                       # number of ReadReq MSHR misses (Count)
system.cpu.dtb_walker_cache.ReadReq.mshrMissLatency::cpu.mmu.dtb.walker   4424296000                       # number of ReadReq MSHR miss ticks (Tick)
system.cpu.dtb_walker_cache.ReadReq.mshrMissLatency::total   4424296000                       # number of ReadReq MSHR miss ticks (Tick)
system.cpu.dtb_walker_cache.ReadReq.mshrMissRate::cpu.mmu.dtb.walker     0.446650                       # mshr miss rate for ReadReq accesses (Ratio)
system.cpu.dtb_walker_cache.ReadReq.mshrMissRate::total     0.446650                       # mshr miss rate for ReadReq accesses (Ratio)
system.cpu.dtb_walker_cache.ReadReq.avgMshrMissLatency::cpu.mmu.dtb.walker 61259.671568                       # average ReadReq mshr miss latency ((Tick/Count))
system.cpu.dtb_walker_cache.ReadReq.avgMshrMissLatency::total 61259.671568                       # average ReadReq mshr miss latency ((Tick/Count))
system.cpu.dtb_walker_cache.power_state.pwrStateResidencyTicks::UNDEFINED  13534948500                       # Cumulative time (in ticks) in various power states (Tick)
system.cpu.dtb_walker_cache.tags.tagsInUse    15.992876                       # Average ticks per tags in use ((Tick/Count))
system.cpu.dtb_walker_cache.tags.totalRefs       161640                       # Total number of references to valid blocks. (Count)
system.cpu.dtb_walker_cache.tags.sampledRefs        72206                       # Sample count of references to valid blocks. (Count)
system.cpu.dtb_walker_cache.tags.avgRefs     2.238595                       # Average number of references to valid blocks. ((Count/Count))
system.cpu.dtb_walker_cache.tags.warmupTick      1601500                       # The tick when the warmup percentage was hit. (Tick)
system.cpu.dtb_walker_cache.tags.occupancies::cpu.mmu.dtb.walker    15.992876                       # Average occupied blocks per tick, per requestor ((Count/Tick))
system.cpu.dtb_walker_cache.tags.avgOccs::cpu.mmu.dtb.walker     0.999555                       # Average percentage of cache occupancy ((Ratio/Tick))
system.cpu.dtb_walker_cache.tags.avgOccs::total     0.999555                       # Average percentage of cache occupancy ((Ratio/Tick))
system.cpu.dtb_walker_cache.tags.occupanciesTaskId::1024           16                       # Occupied blocks per task id (Count)
system.cpu.dtb_walker_cache.tags.ageTaskId_1024::0            4                       # Occupied blocks per task id, per block age (Count)
system.cpu.dtb_walker_cache.tags.ageTaskId_1024::1           12                       # Occupied blocks per task id, per block age (Count)
system.cpu.dtb_walker_cache.tags.ratioOccsTaskId::1024            1                       # Ratio of occupied blocks and all blocks, per task id (Ratio)
system.cpu.dtb_walker_cache.tags.tagAccesses       395616                       # Number of tag accesses (Count)
system.cpu.dtb_walker_cache.tags.dataAccesses       395616                       # Number of data accesses (Count)
system.cpu.dtb_walker_cache.tags.power_state.pwrStateResidencyTicks::UNDEFINED  13534948500                       # Cumulative time (in ticks) in various power states (Tick)
system.cpu.fetch.icacheStallCycles              27124                       # Number of cycles fetch is stalled on an Icache miss (Cycle)
system.cpu.fetch.insts                       87631108                       # Number of instructions fetch has processed (Count)
system.cpu.fetch.branches                     7198935                       # Number of branches that fetch encountered (Count)
system.cpu.fetch.predictedBranches            7198935                       # Number of branches that fetch has predicted taken (Count)
system.cpu.fetch.cycles                      26144849                       # Number of cycles fetch has run and was not squashing or blocked (Cycle)
system.cpu.fetch.squashCycles                 1633722                       # Number of cycles fetch has spent squashing (Cycle)
system.cpu.fetch.tlbCycles                       9114                       # Number of cycles fetch has spent waiting for tlb (Cycle)
system.cpu.fetch.miscStallCycles                 4128                       # Number of cycles fetch has spent waiting on interrupts, or bad addresses, or out of MSHRs (Cycle)
system.cpu.fetch.pendingTrapStallCycles          1228                       # Number of stall cycles due to pending traps (Cycle)
system.cpu.fetch.icacheWaitRetryStallCycles         1951                       # Number of stall cycles due to full MSHR (Cycle)
system.cpu.fetch.cacheLines                   9969442                       # Number of cache lines fetched (Count)
system.cpu.fetch.icacheSquashes                  1065                       # Number of outstanding Icache misses that were squashed (Count)
system.cpu.fetch.tlbSquashes                       92                       # Number of outstanding ITLB misses that were squashed (Count)
system.cpu.fetch.nisnDist::samples           27005255                       # Number of instructions fetched each cycle (Total) (Count)
system.cpu.fetch.nisnDist::mean              3.244966                       # Number of instructions fetched each cycle (Total) (Count)
system.cpu.fetch.nisnDist::stdev             3.210366                       # Number of instructions fetched each cycle (Total) (Count)
system.cpu.fetch.nisnDist::underflows               0      0.00%      0.00% # Number of instructions fetched each cycle (Total) (Count)
system.cpu.fetch.nisnDist::0                  9102693     33.71%     33.71% # Number of instructions fetched each cycle (Total) (Count)
system.cpu.fetch.nisnDist::1                  3039546     11.26%     44.96% # Number of instructions fetched each cycle (Total) (Count)
system.cpu.fetch.nisnDist::2                  2034527      7.53%     52.50% # Number of instructions fetched each cycle (Total) (Count)
system.cpu.fetch.nisnDist::3                  1612368      5.97%     58.47% # Number of instructions fetched each cycle (Total) (Count)
system.cpu.fetch.nisnDist::4                  1629390      6.03%     64.50% # Number of instructions fetched each cycle (Total) (Count)
system.cpu.fetch.nisnDist::5                  1266774      4.69%     69.19% # Number of instructions fetched each cycle (Total) (Count)
system.cpu.fetch.nisnDist::6                  1333749      4.94%     74.13% # Number of instructions fetched each cycle (Total) (Count)
system.cpu.fetch.nisnDist::7                  1058167      3.92%     78.05% # Number of instructions fetched each cycle (Total) (Count)
system.cpu.fetch.nisnDist::8                  5928041     21.95%    100.00% # Number of instructions fetched each cycle (Total) (Count)
system.cpu.fetch.nisnDist::overflows                0      0.00%    100.00% # Number of instructions fetched each cycle (Total) (Count)
system.cpu.fetch.nisnDist::min_value                0                       # Number of instructions fetched each cycle (Total) (Count)
system.cpu.fetch.nisnDist::max_value                8                       # Number of instructions fetched each cycle (Total) (Count)
system.cpu.fetch.nisnDist::total             27005255                       # Number of instructions fetched each cycle (Total) (Count)
system.cpu.fetch.branchRate                  0.265939                       # Number of branch fetches per cycle (Ratio)
system.cpu.fetch.rate                        3.237215                       # Number of inst fetches per cycle ((Count/Cycle))
system.cpu.icache.demandHits::cpu.inst        9967678                       # number of demand (read+write) hits (Count)
system.cpu.icache.demandHits::total           9967678                       # number of demand (read+write) hits (Count)
system.cpu.icache.overallHits::cpu.inst       9967678                       # number of overall hits (Count)
system.cpu.icache.overallHits::total          9967678                       # number of overall hits (Count)
system.cpu.icache.demandMisses::cpu.inst         1736                       # number of demand (read+write) misses (Count)
system.cpu.icache.demandMisses::total            1736                       # number of demand (read+write) misses (Count)
system.cpu.icache.overallMisses::cpu.inst         1736                       # number of overall misses (Count)
system.cpu.icache.overallMisses::total           1736                       # number of overall misses (Count)
system.cpu.icache.demandMissLatency::cpu.inst    104729479                       # number of demand (read+write) miss ticks (Tick)
system.cpu.icache.demandMissLatency::total    104729479                       # number of demand (read+write) miss ticks (Tick)
system.cpu.icache.overallMissLatency::cpu.inst    104729479                       # number of overall miss ticks (Tick)
system.cpu.icache.overallMissLatency::total    104729479                       # number of overall miss ticks (Tick)
system.cpu.icache.demandAccesses::cpu.inst      9969414                       # number of demand (read+write) accesses (Count)
system.cpu.icache.demandAccesses::total       9969414                       # number of demand (read+write) accesses (Count)
system.cpu.icache.overallAccesses::cpu.inst      9969414                       # number of overall (read+write) accesses (Count)
system.cpu.icache.overallAccesses::total      9969414                       # number of overall (read+write) accesses (Count)
system.cpu.icache.demandMissRate::cpu.inst     0.000174                       # miss rate for demand accesses (Ratio)
system.cpu.icache.demandMissRate::total      0.000174                       # miss rate for demand accesses (Ratio)
system.cpu.icache.overallMissRate::cpu.inst     0.000174                       # miss rate for overall accesses (Ratio)
system.cpu.icache.overallMissRate::total     0.000174                       # miss rate for overall accesses (Ratio)
system.cpu.icache.demandAvgMissLatency::cpu.inst 60328.040899                       # average overall miss latency in ticks ((Tick/Count))
system.cpu.icache.demandAvgMissLatency::total 60328.040899                       # average overall miss latency in ticks ((Tick/Count))
system.cpu.icache.overallAvgMissLatency::cpu.inst 60328.040899                       # average overall miss latency ((Tick/Count))
system.cpu.icache.overallAvgMissLatency::total 60328.040899                       # average overall miss latency ((Tick/Count))
system.cpu.icache.blockedCycles::no_mshrs        26720                       # number of cycles access was blocked (Cycle)
system.cpu.icache.blockedCycles::no_targets            0                       # number of cycles access was blocked (Cycle)
system.cpu.icache.blockedCauses::no_mshrs          285                       # number of times access was blocked (Count)
system.cpu.icache.blockedCauses::no_targets            0                       # number of times access was blocked (Count)
system.cpu.icache.avgBlocked::no_mshrs      93.754386                       # average number of cycles each access was blocked ((Cycle/Count))
system.cpu.icache.avgBlocked::no_targets          nan                       # average number of cycles each access was blocked ((Cycle/Count))
system.cpu.icache.demandMshrHits::cpu.inst          495                       # number of demand (read+write) MSHR hits (Count)
system.cpu.icache.demandMshrHits::total           495                       # number of demand (read+write) MSHR hits (Count)
system.cpu.icache.overallMshrHits::cpu.inst          495                       # number of overall MSHR hits (Count)
system.cpu.icache.overallMshrHits::total          495                       # number of overall MSHR hits (Count)
system.cpu.icache.demandMshrMisses::cpu.inst         1241                       # number of demand (read+write) MSHR misses (Count)
system.cpu.icache.demandMshrMisses::total         1241                       # number of demand (read+write) MSHR misses (Count)
system.cpu.icache.overallMshrMisses::cpu.inst         1241                       # number of overall MSHR misses (Count)
[...]
system.mem_ctrls.dram.bytesPerActivate::mean   198.723714                       # Bytes accessed per row activation (Byte)
system.mem_ctrls.dram.bytesPerActivate::gmean   123.907560                       # Bytes accessed per row activation (Byte)
system.mem_ctrls.dram.bytesPerActivate::stdev   235.024050                       # Bytes accessed per row activation (Byte)
system.mem_ctrls.dram.bytesPerActivate::0-127        19509     56.32%     56.32% # Bytes accessed per row activation (Byte)
system.mem_ctrls.dram.bytesPerActivate::128-255         6557     18.93%     75.25% # Bytes accessed per row activation (Byte)
system.mem_ctrls.dram.bytesPerActivate::256-383         2579      7.45%     82.70% # Bytes accessed per row activation (Byte)
system.mem_ctrls.dram.bytesPerActivate::384-511         1624      4.69%     87.39% # Bytes accessed per row activation (Byte)
system.mem_ctrls.dram.bytesPerActivate::512-639         1284      3.71%     91.09% # Bytes accessed per row activation (Byte)
system.mem_ctrls.dram.bytesPerActivate::640-767         1050      3.03%     94.12% # Bytes accessed per row activation (Byte)
system.mem_ctrls.dram.bytesPerActivate::768-895          796      2.30%     96.42% # Bytes accessed per row activation (Byte)
system.mem_ctrls.dram.bytesPerActivate::896-1023          501      1.45%     97.87% # Bytes accessed per row activation (Byte)
system.mem_ctrls.dram.bytesPerActivate::1024-1151          738      2.13%    100.00% # Bytes accessed per row activation (Byte)
system.mem_ctrls.dram.bytesPerActivate::total        34638                       # Bytes accessed per row activation (Byte)
system.mem_ctrls.dram.bytesRead               6399680                       # Total bytes read (Byte)
system.mem_ctrls.dram.bytesWritten             485632                       # Total bytes written (Byte)
system.mem_ctrls.dram.avgRdBW              454.028278                       # Average DRAM read bandwidth in MiBytes/s ((Byte/Second))
system.mem_ctrls.dram.avgWrBW               34.453388                       # Average DRAM write bandwidth in MiBytes/s ((Byte/Second))
system.mem_ctrls.dram.peakBW                 19207.00                       # Theoretical peak bandwidth in MiByte/s ((Byte/Second))
system.mem_ctrls.dram.busUtil                    2.54                       # Data bus utilization in percentage (Ratio)
system.mem_ctrls.dram.busUtilRead                2.36                       # Data bus utilization in percentage for reads (Ratio)
system.mem_ctrls.dram.busUtilWrite               0.18                       # Data bus utilization in percentage for writes (Ratio)
system.mem_ctrls.dram.pageHitRate               67.80                       # Row buffer hit rate, read and write combined (Ratio)
system.mem_ctrls.dram.power_state.pwrStateResidencyTicks::UNDEFINED  14095333500                       # Cumulative time (in ticks) in various power states (Tick)
system.mem_ctrls.dram.rank0.actEnergy    58560806.304000                       # Energy for activate commands per rank (pJ) (Joule)
system.mem_ctrls.dram.rank0.preEnergy    77851694.860800                       # Energy for precharge commands per rank (pJ) (Joule)
system.mem_ctrls.dram.rank0.readEnergy   276906041.260800                       # Energy for read commands per rank (pJ) (Joule)
system.mem_ctrls.dram.rank0.writeEnergy  13556895.072000                       # Energy for write commands per rank (pJ) (Joule)
system.mem_ctrls.dram.rank0.refreshEnergy 2507533505.231952                       # Energy for refresh commands per rank (pJ) (Joule)
system.mem_ctrls.dram.rank0.actBackEnergy 11657289614.241493                       # Energy for active background per rank (pJ) (Joule)
system.mem_ctrls.dram.rank0.preBackEnergy 244420400.716802                       # Energy for precharge background per rank (pJ) (Joule)
system.mem_ctrls.dram.rank0.actPowerDownEnergy            0                       # Energy for active power-down per rank (pJ) (Joule)
system.mem_ctrls.dram.rank0.prePowerDownEnergy            0                       # Energy for precharge power-down per rank (pJ) (Joule)
system.mem_ctrls.dram.rank0.selfRefreshEnergy            0                       # Energy for self refresh per rank (pJ) (Joule)
system.mem_ctrls.dram.rank0.totalEnergy  14836118957.688007                       # Total energy per rank (pJ) (Joule)
system.mem_ctrls.dram.rank0.averagePower  1052.555369                       # Core power per rank (mW) (Watt)
system.mem_ctrls.dram.rank0.totalIdleTime            0                       # Total Idle time Per DRAM Rank (Tick)
system.mem_ctrls.dram.rank0.pwrStateTime::IDLE    323961664                       # Time in different power states (Tick)
system.mem_ctrls.dram.rank0.pwrStateTime::REF    633500000                       # Time in different power states (Tick)
system.mem_ctrls.dram.rank0.pwrStateTime::SREF            0                       # Time in different power states (Tick)
system.mem_ctrls.dram.rank0.pwrStateTime::PRE_PDN            0                       # Time in different power states (Tick)
system.mem_ctrls.dram.rank0.pwrStateTime::ACT  13137871836                       # Time in different power states (Tick)
system.mem_ctrls.dram.rank0.pwrStateTime::ACT_PDN            0                       # Time in different power states (Tick)
system.mem_ctrls.dram.rank1.actEnergy    49469644.224000                       # Energy for activate commands per rank (pJ) (Joule)
system.mem_ctrls.dram.rank1.preEnergy    65769257.769600                       # Energy for precharge commands per rank (pJ) (Joule)
system.mem_ctrls.dram.rank1.readEnergy   143704607.155200                       # Energy for read commands per rank (pJ) (Joule)
system.mem_ctrls.dram.rank1.writeEnergy  14962572.576000                       # Energy for write commands per rank (pJ) (Joule)
system.mem_ctrls.dram.rank1.refreshEnergy 2507533505.231952                       # Energy for refresh commands per rank (pJ) (Joule)
system.mem_ctrls.dram.rank1.actBackEnergy 11507369718.196707                       # Energy for active background per rank (pJ) (Joule)
system.mem_ctrls.dram.rank1.preBackEnergy 359613089.203199                       # Energy for precharge background per rank (pJ) (Joule)
system.mem_ctrls.dram.rank1.actPowerDownEnergy            0                       # Energy for active power-down per rank (pJ) (Joule)
system.mem_ctrls.dram.rank1.prePowerDownEnergy            0                       # Energy for precharge power-down per rank (pJ) (Joule)
system.mem_ctrls.dram.rank1.selfRefreshEnergy            0                       # Energy for self refresh per rank (pJ) (Joule)
system.mem_ctrls.dram.rank1.totalEnergy  14648422394.356781                       # Total energy per rank (pJ) (Joule)
system.mem_ctrls.dram.rank1.averagePower  1039.239149                       # Core power per rank (mW) (Watt)
system.mem_ctrls.dram.rank1.totalIdleTime            0                       # Total Idle time Per DRAM Rank (Tick)
system.mem_ctrls.dram.rank1.pwrStateTime::IDLE    499839224                       # Time in different power states (Tick)
system.mem_ctrls.dram.rank1.pwrStateTime::REF    633500000                       # Time in different power states (Tick)
system.mem_ctrls.dram.rank1.pwrStateTime::SREF            0                       # Time in different power states (Tick)
system.mem_ctrls.dram.rank1.pwrStateTime::PRE_PDN            0                       # Time in different power states (Tick)
system.mem_ctrls.dram.rank1.pwrStateTime::ACT  12961994276                       # Time in different power states (Tick)
system.mem_ctrls.dram.rank1.pwrStateTime::ACT_PDN            0                       # Time in different power states (Tick)
system.mem_ctrls.power_state.pwrStateResidencyTicks::UNDEFINED  14095333500                       # Cumulative time (in ticks) in various power states (Tick)
system.membus.transDist::ReadResp               98978                       # Transaction distribution (Count)
system.membus.transDist::WritebackDirty          7579                       # Transaction distribution (Count)
system.membus.transDist::CleanEvict             56347                       # Transaction distribution (Count)
system.membus.transDist::ReadExReq               1023                       # Transaction distribution (Count)
system.membus.transDist::ReadExResp              1023                       # Transaction distribution (Count)
system.membus.transDist::ReadCleanReq           98979                       # Transaction distribution (Count)
system.membus.pktCount_system.l2.mem_side_port::system.mem_ctrls.port       263929                       # Packet count per connected requestor and responder (Count)
system.membus.pktCount_system.l2.mem_side_port::total       263929                       # Packet count per connected requestor and responder (Count)
system.membus.pktCount::total                  263929                       # Packet count per connected requestor and responder (Count)
system.membus.pktSize_system.l2.mem_side_port::system.mem_ctrls.port      6885120                       # Cumulative packet size per connected requestor and responder (Byte)
system.membus.pktSize_system.l2.mem_side_port::total      6885120                       # Cumulative packet size per connected requestor and responder (Byte)
system.membus.pktSize::total                  6885120                       # Cumulative packet size per connected requestor and responder (Byte)
system.membus.snoops                                0                       # Total snoops (Count)
system.membus.snoopTraffic                          0                       # Total snoop traffic (Byte)
system.membus.snoopFanout::samples             100002                       # Request fanout histogram (Count)
system.membus.snoopFanout::mean                     0                       # Request fanout histogram (Count)
system.membus.snoopFanout::stdev                    0                       # Request fanout histogram (Count)
system.membus.snoopFanout::underflows               0      0.00%      0.00% # Request fanout histogram (Count)
system.membus.snoopFanout::0                   100002    100.00%    100.00% # Request fanout histogram (Count)
system.membus.snoopFanout::1                        0      0.00%    100.00% # Request fanout histogram (Count)
system.membus.snoopFanout::2                        0      0.00%    100.00% # Request fanout histogram (Count)
system.membus.snoopFanout::overflows                0      0.00%    100.00% # Request fanout histogram (Count)
system.membus.snoopFanout::min_value                0                       # Request fanout histogram (Count)
system.membus.snoopFanout::max_value                0                       # Request fanout histogram (Count)
system.membus.snoopFanout::total               100002                       # Request fanout histogram (Count)
system.membus.badaddr_responder.power_state.pwrStateResidencyTicks::UNDEFINED  14095333500                       # Cumulative time (in ticks) in various power states (Tick)
system.membus.power_state.pwrStateResidencyTicks::UNDEFINED  14095333500                       # Cumulative time (in ticks) in various power states (Tick)
system.membus.reqLayer4.occupancy           211957000                       # Layer occupancy (ticks) (Tick)
system.membus.reqLayer4.utilization               0.0                       # Layer utilization (Ratio)
system.membus.respLayer2.occupancy          542006466                       # Layer occupancy (ticks) (Tick)
system.membus.respLayer2.utilization              0.0                       # Layer utilization (Ratio)
system.membus.snoop_filter.totRequests         163928                       # Total number of requests made to the snoop filter. (Count)
system.membus.snoop_filter.hitSingleRequests        96411                       # Number of requests hitting in the snoop filter with a single holder of the requested data. (Count)
system.membus.snoop_filter.hitMultiRequests            0                       # Number of requests hitting in the snoop filter with multiple (>1) holders of the requested data. (Count)
system.membus.snoop_filter.totSnoops                0                       # Total number of snoops made to the snoop filter. (Count)
system.membus.snoop_filter.hitSingleSnoops            0                       # Number of snoops hitting in the snoop filter with a single holder of the requested data. (Count)
system.membus.snoop_filter.hitMultiSnoops            0                       # Number of snoops hitting in the snoop filter with multiple (>1) holders of the requested data. (Count)
system.mmcs.power_state.pwrStateResidencyTicks::UNDEFINED  14095333500                       # Cumulative time (in ticks) in various power states (Tick)
system.tol2bus.transDist::ReadResp             103073                       # Transaction distribution (Count)
system.tol2bus.transDist::WritebackDirty        28266                       # Transaction distribution (Count)
system.tol2bus.transDist::WritebackClean            1                       # Transaction distribution (Count)
system.tol2bus.transDist::CleanEvict            88873                       # Transaction distribution (Count)
system.tol2bus.transDist::ReadExReq              6627                       # Transaction distribution (Count)
system.tol2bus.transDist::ReadExResp             6627                       # Transaction distribution (Count)
system.tol2bus.transDist::ReadCleanReq            140                       # Transaction distribution (Count)
system.tol2bus.transDist::ReadSharedReq        102934                       # Transaction distribution (Count)
system.tol2bus.pktCount_system.cpu.icache.mem_side_port::system.l2.cpu_side_port          281                       # Packet count per connected requestor and responder (Count)
system.tol2bus.pktCount_system.cpu.dcache.mem_side_port::system.l2.cpu_side_port        99462                       # Packet count per connected requestor and responder (Count)
system.tol2bus.pktCount_system.cpu.itb_walker_cache.mem_side_port::system.l2.cpu_side_port          531                       # Packet count per connected requestor and responder (Count)
system.tol2bus.pktCount_system.cpu.dtb_walker_cache.mem_side_port::system.l2.cpu_side_port       228688                       # Packet count per connected requestor and responder (Count)
system.tol2bus.pktCount::total                 328962                       # Packet count per connected requestor and responder (Count)
system.tol2bus.pktSize_system.cpu.icache.mem_side_port::system.l2.cpu_side_port         9024                       # Cumulative packet size per connected requestor and responder (Byte)
system.tol2bus.pktSize_system.cpu.dcache.mem_side_port::system.l2.cpu_side_port      3445824                       # Cumulative packet size per connected requestor and responder (Byte)
system.tol2bus.pktSize_system.cpu.itb_walker_cache.mem_side_port::system.l2.cpu_side_port        11328                       # Cumulative packet size per connected requestor and responder (Byte)
system.tol2bus.pktSize_system.cpu.dtb_walker_cache.mem_side_port::system.l2.cpu_side_port      4878656                       # Cumulative packet size per connected requestor and responder (Byte)
system.tol2bus.pktSize::total                 8344832                       # Cumulative packet size per connected requestor and responder (Byte)
system.tol2bus.snoops                            7579                       # Total snoops (Count)
system.tol2bus.snoopTraffic                    485056                       # Total snoop traffic (Byte)
system.tol2bus.snoopFanout::samples            117280                       # Request fanout histogram (Count)
system.tol2bus.snoopFanout::mean             0.277362                       # Request fanout histogram (Count)
system.tol2bus.snoopFanout::stdev            0.447699                       # Request fanout histogram (Count)
system.tol2bus.snoopFanout::underflows              0      0.00%      0.00% # Request fanout histogram (Count)
system.tol2bus.snoopFanout::0                   84751     72.26%     72.26% # Request fanout histogram (Count)
system.tol2bus.snoopFanout::1                   32529     27.74%    100.00% # Request fanout histogram (Count)
system.tol2bus.snoopFanout::2                       0      0.00%    100.00% # Request fanout histogram (Count)
system.tol2bus.snoopFanout::3                       0      0.00%    100.00% # Request fanout histogram (Count)
system.tol2bus.snoopFanout::4                       0      0.00%    100.00% # Request fanout histogram (Count)
system.tol2bus.snoopFanout::overflows               0      0.00%    100.00% # Request fanout histogram (Count)
system.tol2bus.snoopFanout::min_value               0                       # Request fanout histogram (Count)
system.tol2bus.snoopFanout::max_value               1                       # Request fanout histogram (Count)
system.tol2bus.snoopFanout::total              117280                       # Request fanout histogram (Count)
system.tol2bus.power_state.pwrStateResidencyTicks::UNDEFINED  14095333500                       # Cumulative time (in ticks) in various power states (Tick)
system.tol2bus.reqLayer0.occupancy          119975000                       # Layer occupancy (ticks) (Tick)
system.tol2bus.reqLayer0.utilization              0.0                       # Layer utilization (Ratio)
system.tol2bus.respLayer0.occupancy            140499                       # Layer occupancy (ticks) (Tick)
system.tol2bus.respLayer0.utilization             0.0                       # Layer utilization (Ratio)
system.tol2bus.respLayer1.occupancy          33154000                       # Layer occupancy (ticks) (Tick)
system.tol2bus.respLayer1.utilization             0.0                       # Layer utilization (Ratio)
system.tol2bus.respLayer2.occupancy            189475                       # Layer occupancy (ticks) (Tick)
system.tol2bus.respLayer2.utilization             0.0                       # Layer utilization (Ratio)
system.tol2bus.respLayer3.occupancy          76245966                       # Layer occupancy (ticks) (Tick)
system.tol2bus.respLayer3.utilization             0.0                       # Layer utilization (Ratio)
system.tol2bus.snoop_filter.totRequests        219262                       # Total number of requests made to the snoop filter. (Count)
system.tol2bus.snoop_filter.hitSingleRequests       109564                       # Number of requests hitting in the snoop filter with a single holder of the requested data. (Count)
system.tol2bus.snoop_filter.hitMultiRequests        32526                       # Number of requests hitting in the snoop filter with multiple (>1) holders of the requested data. (Count)
system.tol2bus.snoop_filter.totSnoops               0                       # Total number of snoops made to the snoop filter. (Count)
system.tol2bus.snoop_filter.hitSingleSnoops            0                       # Number of snoops hitting in the snoop filter with a single holder of the requested data. (Count)
system.tol2bus.snoop_filter.hitMultiSnoops            0                       # Number of snoops hitting in the snoop filter with multiple (>1) holders of the requested data. (Count)
system.uartlite.power_state.pwrStateResidencyTicks::UNDEFINED  14095333500                       # Cumulative time (in ticks) in various power states (Tick)
system.voltage_domain.voltage                       1                       # Voltage in Volts (Volt)
system.workload.inst.arm                            0                       # number of arm instructions executed (Count)
system.workload.inst.quiesce                        0                       # number of quiesce instructions executed (Count)

---------- End Simulation Statistics   ----------
