
---------- Begin Simulation Statistics ----------
simSeconds                                   0.001974                       # Number of seconds simulated (Second)
simTicks                                   1974338500                       # Number of ticks simulated (Tick)
finalTick                                  1974338500                       # Number of ticks from beginning of simulation (restored from checkpoints and never reset) (Tick)
simFreq                                  1000000000000                       # The number of ticks per simulated second ((Tick/Second))
hostSeconds                                     78.45                       # Real time elapsed on the host (Second)
hostTickRate                                 25167423                       # The number of ticks simulated per host second (ticks/s) ((Tick/Second))
hostMemory                                   17872512                       # Number of bytes of host memory used (Byte)
simInsts                                     10000003                       # Number of instructions simulated (Count)
simOps                                       10000003                       # Number of ops (including micro ops) simulated (Count)
hostInstRate                                   127473                       # Simulator instruction rate (inst/s) ((Count/Second))
hostOpRate                                     127472                       # Simulator op (including micro ops) rate (op/s) ((Count/Second))
system.bridge.power_state.pwrStateResidencyTicks::UNDEFINED   1974338500                       # Cumulative time (in ticks) in various power states (Tick)
system.clk_domain.clock                          1000                       # Clock period in ticks (Tick)
system.cpu.numCycles                          3948678                       # Number of cpu cycles simulated (Cycle)
system.cpu.numWorkItemsStarted                      0                       # Number of work items this cpu started (Count)
system.cpu.numWorkItemsCompleted                    0                       # Number of work items this cpu completed (Count)
system.cpu.instsAdded                        10007727                       # Number of instructions added to the IQ (excludes non-spec) (Count)
system.cpu.nonSpecInstsAdded                       33                       # Number of non-speculative instructions added to the IQ (Count)
system.cpu.instsIssued                       10005870                       # Number of instructions issued (Count)
system.cpu.squashedInstsIssued                    198                       # Number of squashed instructions issued (Count)
system.cpu.squashedInstsExamined                 7685                       # Number of squashed instructions iterated over during squash; mainly for profiling (Count)
system.cpu.squashedOperandsExamined              5535                       # Number of squashed operands that are examined and possibly removed from graph (Count)
system.cpu.numIssuedDist::samples             3942527                       # Number of insts issued each cycle (Count)
system.cpu.numIssuedDist::mean               2.537933                       # Number of insts issued each cycle (Count)
system.cpu.numIssuedDist::stdev              2.851975                       # Number of insts issued each cycle (Count)
system.cpu.numIssuedDist::underflows                0      0.00%      0.00% # Number of insts issued each cycle (Count)
system.cpu.numIssuedDist::0                   1897029     48.12%     48.12% # Number of insts issued each cycle (Count)
system.cpu.numIssuedDist::1                    155692      3.95%     52.07% # Number of insts issued each cycle (Count)
system.cpu.numIssuedDist::2                    149250      3.79%     55.85% # Number of insts issued each cycle (Count)
system.cpu.numIssuedDist::3                    206199      5.23%     61.08% # Number of insts issued each cycle (Count)
system.cpu.numIssuedDist::4                    339686      8.62%     69.70% # Number of insts issued each cycle (Count)
system.cpu.numIssuedDist::5                    328345      8.33%     78.03% # Number of insts issued each cycle (Count)
system.cpu.numIssuedDist::6                    367388      9.32%     87.34% # Number of insts issued each cycle (Count)
system.cpu.numIssuedDist::7                    263220      6.68%     94.02% # Number of insts issued each cycle (Count)
system.cpu.numIssuedDist::8                    235718      5.98%    100.00% # Number of insts issued each cycle (Count)
system.cpu.numIssuedDist::overflows                 0      0.00%    100.00% # Number of insts issued each cycle (Count)
system.cpu.numIssuedDist::min_value                 0                       # Number of insts issued each cycle (Count)
system.cpu.numIssuedDist::max_value                 8                       # Number of insts issued each cycle (Count)
system.cpu.numIssuedDist::total               3942527                       # Number of insts issued each cycle (Count)
system.cpu.statFuBusy::No_OpClass                   0      0.00%      0.00% # attempts to use FU when none available (Count)
system.cpu.statFuBusy::IntAlu                      17      0.00%      0.00% # attempts to use FU when none available (Count)
system.cpu.statFuBusy::IntMult                      0      0.00%      0.00% # attempts to use FU when none available (Count)
system.cpu.statFuBusy::IntDiv                       0      0.00%      0.00% # attempts to use FU when none available (Count)
system.cpu.statFuBusy::FloatAdd                 19045      1.28%      1.28% # attempts to use FU when none available (Count)
system.cpu.statFuBusy::FloatCmp                     0      0.00%      1.28% # attempts to use FU when none available (Count)
system.cpu.statFuBusy::FloatCvt                198716     13.39%     14.67% # attempts to use FU when none available (Count)
system.cpu.statFuBusy::FloatMult               419855     28.29%     42.96% # attempts to use FU when none available (Count)
system.cpu.statFuBusy::FloatMultAcc            466387     31.42%     74.38% # attempts to use FU when none available (Count)
system.cpu.statFuBusy::FloatDiv                     0      0.00%     74.38% # attempts to use FU when none available (Count)
system.cpu.statFuBusy::FloatMisc                34806      2.35%     76.73% # attempts to use FU when none available (Count)
system.cpu.statFuBusy::FloatSqrt                    0      0.00%     76.73% # attempts to use FU when none available (Count)
system.cpu.statFuBusy::SimdAdd                      0      0.00%     76.73% # attempts to use FU when none available (Count)
system.cpu.statFuBusy::SimdAddAcc                   0      0.00%     76.73% # attempts to use FU when none available (Count)
system.cpu.statFuBusy::SimdAlu                      0      0.00%     76.73% # attempts to use FU when none available (Count)
system.cpu.statFuBusy::SimdCmp                      0      0.00%     76.73% # attempts to use FU when none available (Count)
system.cpu.statFuBusy::SimdCvt                      0      0.00%     76.73% # attempts to use FU when none available (Count)
system.cpu.statFuBusy::SimdMisc                     0      0.00%     76.73% # attempts to use FU when none available (Count)
system.cpu.statFuBusy::SimdMult                     0      0.00%     76.73% # attempts to use FU when none available (Count)
system.cpu.statFuBusy::SimdMultAcc                  0      0.00%     76.73% # attempts to use FU when none available (Count)
system.cpu.statFuBusy::SimdShift                    0      0.00%     76.73% # attempts to use FU when none available (Count)
system.cpu.statFuBusy::SimdShiftAcc                 0      0.00%     76.73% # attempts to use FU when none available (Count)
system.cpu.statFuBusy::SimdDiv                      0      0.00%     76.73% # attempts to use FU when none available (Count)
system.cpu.statFuBusy::SimdSqrt                     0      0.00%     76.73% # attempts to use FU when none available (Count)
system.cpu.statFuBusy::SimdFloatAdd                 0      0.00%     76.73% # attempts to use FU when none available (Count)
system.cpu.statFuBusy::SimdFloatAlu                 0      0.00%     76.73% # attempts to use FU when none available (Count)
system.cpu.statFuBusy::SimdFloatCmp                 0      0.00%     76.73% # attempts to use FU when none available (Count)
system.cpu.statFuBusy::SimdFloatCvt                 0      0.00%     76.73% # attempts to use FU when none available (Count)
system.cpu.statFuBusy::SimdFloatDiv                 0      0.00%     76.73% # attempts to use FU when none available (Count)
system.cpu.statFuBusy::SimdFloatMisc                0      0.00%     76.73% # attempts to use FU when none available (Count)
system.cpu.statFuBusy::SimdFloatMult                0      0.00%     76.73% # attempts to use FU when none available (Count)
system.cpu.statFuBusy::SimdFloatMultAcc             0      0.00%     76.73% # attempts to use FU when none available (Count)
system.cpu.statFuBusy::SimdFloatSqrt                0      0.00%     76.73% # attempts to use FU when none available (Count)
system.cpu.statFuBusy::SimdReduceAdd                0      0.00%     76.73% # attempts to use FU when none available (Count)
system.cpu.statFuBusy::SimdReduceAlu                0      0.00%     76.73% # attempts to use FU when none available (Count)
system.cpu.statFuBusy::SimdReduceCmp                0      0.00%     76.73% # attempts to use FU when none available (Count)
system.cpu.statFuBusy::SimdFloatReduceAdd            0      0.00%     76.73% # attempts to use FU when none available (Count)
system.cpu.statFuBusy::SimdFloatReduceCmp            0      0.00%     76.73% # attempts to use FU when none available (Count)
system.cpu.statFuBusy::SimdAes                      0      0.00%     76.73% # attempts to use FU when none available (Count)
system.cpu.statFuBusy::SimdAesMix                   0      0.00%     76.73% # attempts to use FU when none available (Count)
system.cpu.statFuBusy::SimdSha1Hash                 0      0.00%     76.73% # attempts to use FU when none available (Count)
system.cpu.statFuBusy::SimdSha1Hash2                0      0.00%     76.73% # attempts to use FU when none available (Count)
system.cpu.statFuBusy::SimdSha256Hash               0      0.00%     76.73% # attempts to use FU when none available (Count)
system.cpu.statFuBusy::SimdSha256Hash2              0      0.00%     76.73% # attempts to use FU when none available (Count)
system.cpu.statFuBusy::SimdShaSigma2                0      0.00%     76.73% # attempts to use FU when none available (Count)
system.cpu.statFuBusy::SimdShaSigma3                0      0.00%     76.73% # attempts to use FU when none available (Count)
system.cpu.statFuBusy::SimdPredAlu                  0      0.00%     76.73% # attempts to use FU when none available (Count)
system.cpu.statFuBusy::MemRead                 125323      8.44%     85.17% # attempts to use FU when none available (Count)
system.cpu.statFuBusy::MemWrite                  5394      0.36%     85.54% # attempts to use FU when none available (Count)
system.cpu.statFuBusy::FloatMemRead            148354     10.00%     95.53% # attempts to use FU when none available (Count)
system.cpu.statFuBusy::FloatMemWrite            66314      4.47%    100.00% # attempts to use FU when none available (Count)
system.cpu.statFuBusy::IprAccess                    0      0.00%    100.00% # attempts to use FU when none available (Count)
system.cpu.statFuBusy::InstPrefetch                 0      0.00%    100.00% # attempts to use FU when none available (Count)
system.cpu.statIssuedInstType_0::No_OpClass           32      0.00%      0.00% # Number of instructions issued per FU type, per thread (Count)
system.cpu.statIssuedInstType_0::IntAlu        410304      4.10%      4.10% # Number of instructions issued per FU type, per thread (Count)
system.cpu.statIssuedInstType_0::IntMult            0      0.00%      4.10% # Number of instructions issued per FU type, per thread (Count)
system.cpu.statIssuedInstType_0::IntDiv             0      0.00%      4.10% # Number of instructions issued per FU type, per thread (Count)
system.cpu.statIssuedInstType_0::FloatAdd       694679      6.94%     11.04% # Number of instructions issued per FU type, per thread (Count)
system.cpu.statIssuedInstType_0::FloatCmp            0      0.00%     11.04% # Number of instructions issued per FU type, per thread (Count)
system.cpu.statIssuedInstType_0::FloatCvt      2867155     28.65%     39.70% # Number of instructions issued per FU type, per thread (Count)
system.cpu.statIssuedInstType_0::FloatMult       720925      7.21%     46.90% # Number of instructions issued per FU type, per thread (Count)
system.cpu.statIssuedInstType_0::FloatMultAcc      1649682     16.49%     63.39% # Number of instructions issued per FU type, per thread (Count)
system.cpu.statIssuedInstType_0::FloatDiv         5337      0.05%     63.44% # Number of instructions issued per FU type, per thread (Count)
system.cpu.statIssuedInstType_0::FloatMisc        64057      0.64%     64.08% # Number of instructions issued per FU type, per thread (Count)
system.cpu.statIssuedInstType_0::FloatSqrt            0      0.00%     64.08% # Number of instructions issued per FU type, per thread (Count)
system.cpu.statIssuedInstType_0::SimdAdd            0      0.00%     64.08% # Number of instructions issued per FU type, per thread (Count)
system.cpu.statIssuedInstType_0::SimdAddAcc            0      0.00%     64.08% # Number of instructions issued per FU type, per thread (Count)
system.cpu.statIssuedInstType_0::SimdAlu            0      0.00%     64.08% # Number of instructions issued per FU type, per thread (Count)
system.cpu.statIssuedInstType_0::SimdCmp            0      0.00%     64.08% # Number of instructions issued per FU type, per thread (Count)
system.cpu.statIssuedInstType_0::SimdCvt            0      0.00%     64.08% # Number of instructions issued per FU type, per thread (Count)
system.cpu.statIssuedInstType_0::SimdMisc            0      0.00%     64.08% # Number of instructions issued per FU type, per thread (Count)
system.cpu.statIssuedInstType_0::SimdMult            0      0.00%     64.08% # Number of instructions issued per FU type, per thread (Count)
system.cpu.statIssuedInstType_0::SimdMultAcc            0      0.00%     64.08% # Number of instructions issued per FU type, per thread (Count)
system.cpu.statIssuedInstType_0::SimdShift            0      0.00%     64.08% # Number of instructions issued per FU type, per thread (Count)
system.cpu.statIssuedInstType_0::SimdShiftAcc            0      0.00%     64.08% # Number of instructions issued per FU type, per thread (Count)
system.cpu.statIssuedInstType_0::SimdDiv            0      0.00%     64.08% # Number of instructions issued per FU type, per thread (Count)
system.cpu.statIssuedInstType_0::SimdSqrt            0      0.00%     64.08% # Number of instructions issued per FU type, per thread (Count)
system.cpu.statIssuedInstType_0::SimdFloatAdd            0      0.00%     64.08% # Number of instructions issued per FU type, per thread (Count)
system.cpu.statIssuedInstType_0::SimdFloatAlu            0      0.00%     64.08% # Number of instructions issued per FU type, per thread (Count)
system.cpu.statIssuedInstType_0::SimdFloatCmp            0      0.00%     64.08% # Number of instructions issued per FU type, per thread (Count)
system.cpu.statIssuedInstType_0::SimdFloatCvt            0      0.00%     64.08% # Number of instructions issued per FU type, per thread (Count)
system.cpu.statIssuedInstType_0::SimdFloatDiv            0      0.00%     64.08% # Number of instructions issued per FU type, per thread (Count)
system.cpu.statIssuedInstType_0::SimdFloatMisc            0      0.00%     64.08% # Number of instructions issued per FU type, per thread (Count)
system.cpu.statIssuedInstType_0::SimdFloatMult            0      0.00%     64.08% # Number of instructions issued per FU type, per thread (Count)
system.cpu.statIssuedInstType_0::SimdFloatMultAcc            0      0.00%     64.08% # Number of instructions issued per FU type, per thread (Count)
system.cpu.statIssuedInstType_0::SimdFloatSqrt            0      0.00%     64.08% # Number of instructions issued per FU type, per thread (Count)
system.cpu.statIssuedInstType_0::SimdReduceAdd            0      0.00%     64.08% # Number of instructions issued per FU type, per thread (Count)
system.cpu.statIssuedInstType_0::SimdReduceAlu            0      0.00%     64.08% # Number of instructions issued per FU type, per thread (Count)
system.cpu.statIssuedInstType_0::SimdReduceCmp            0      0.00%     64.08% # Number of instructions issued per FU type, per thread (Count)
system.cpu.statIssuedInstType_0::SimdFloatReduceAdd            0      0.00%     64.08% # Number of instructions issued per FU type, per thread (Count)
system.cpu.statIssuedInstType_0::SimdFloatReduceCmp            0      0.00%     64.08% # Number of instructions issued per FU type, per thread (Count)
system.cpu.statIssuedInstType_0::SimdAes            0      0.00%     64.08% # Number of instructions issued per FU type, per thread (Count)
system.cpu.statIssuedInstType_0::SimdAesMix            0      0.00%     64.08% # Number of instructions issued per FU type, per thread (Count)
system.cpu.statIssuedInstType_0::SimdSha1Hash            0      0.00%     64.08% # Number of instructions issued per FU type, per thread (Count)
system.cpu.statIssuedInstType_0::SimdSha1Hash2            0      0.00%     64.08% # Number of instructions issued per FU type, per thread (Count)
system.cpu.statIssuedInstType_0::SimdSha256Hash            0      0.00%     64.08% # Number of instructions issued per FU type, per thread (Count)
system.cpu.statIssuedInstType_0::SimdSha256Hash2            0      0.00%     64.08% # Number of instructions issued per FU type, per thread (Count)
system.cpu.statIssuedInstType_0::SimdShaSigma2            0      0.00%     64.08% # Number of instructions issued per FU type, per thread (Count)
system.cpu.statIssuedInstType_0::SimdShaSigma3            0      0.00%     64.08% # Number of instructions issued per FU type, per thread (Count)
system.cpu.statIssuedInstType_0::SimdPredAlu            0      0.00%     64.08% # Number of instructions issued per FU type, per thread (Count)
system.cpu.statIssuedInstType_0::MemRead       665945      6.66%     70.74% # Number of instructions issued per FU type, per thread (Count)
system.cpu.statIssuedInstType_0::MemWrite       148008      1.48%     72.22% # Number of instructions issued per FU type, per thread (Count)
system.cpu.statIssuedInstType_0::FloatMemRead      1966850     19.66%     91.88% # Number of instructions issued per FU type, per thread (Count)
system.cpu.statIssuedInstType_0::FloatMemWrite       812896      8.12%    100.00% # Number of instructions issued per FU type, per thread (Count)
system.cpu.statIssuedInstType_0::IprAccess            0      0.00%    100.00% # Number of instructions issued per FU type, per thread (Count)
system.cpu.statIssuedInstType_0::InstPrefetch            0      0.00%    100.00% # Number of instructions issued per FU type, per thread (Count)
system.cpu.statIssuedInstType_0::total       10005870                       # Number of instructions issued per FU type, per thread (Count)
system.cpu.issueRate                         2.533980                       # Inst issue rate ((Count/Cycle))
system.cpu.fuBusy                             1484211                       # FU busy when requested (Count)
system.cpu.fuBusyRate                        0.148334                       # FU busy rate (busy events/executed inst) ((Count/Count))
system.cpu.intInstQueueReads                  6521899                       # Number of integer instruction queue reads (Count)
system.cpu.intInstQueueWrites                 1228330                       # Number of integer instruction queue writes (Count)
system.cpu.intInstQueueWakeupAccesses         1223536                       # Number of integer instruction queue wakeup accesses (Count)
system.cpu.fpInstQueueReads                  18916759                       # Number of floating instruction queue reads (Count)
system.cpu.fpInstQueueWrites                  8787304                       # Number of floating instruction queue writes (Count)
system.cpu.fpInstQueueWakeupAccesses          8780542                       # Number of floating instruction queue wakeup accesses (Count)
system.cpu.vecInstQueueReads                        0                       # Number of vector instruction queue reads (Count)
system.cpu.vecInstQueueWrites                       0                       # Number of vector instruction queue writes (Count)
system.cpu.vecInstQueueWakeupAccesses               0                       # Number of vector instruction queue wakeup accesses (Count)
system.cpu.intAluAccesses                     1354991                       # Number of integer alu accesses (Count)
system.cpu.fpAluAccesses                     10135058                       # Number of floating point alu accesses (Count)
system.cpu.vecAluAccesses                           0                       # Number of vector alu accesses (Count)
system.cpu.numInsts                          10004807                       # Number of executed instructions (Count)
system.cpu.numLoadInsts                       2632171                       # Number of load instructions executed (Count)
system.cpu.numSquashedInsts                       529                       # Number of squashed instructions skipped in execute (Count)
system.cpu.numSwp                                   0                       # Number of swp insts executed (Count)
system.cpu.numNop                                   0                       # Number of nop insts executed (Count)
system.cpu.numRefs                            3592917                       # Number of memory reference insts executed (Count)
system.cpu.numBranches                          10829                       # Number of branches executed (Count)
system.cpu.numStoreInsts                       960746                       # Number of stores executed (Count)
system.cpu.numRate                           2.533711                       # Inst execution rate ((Count/Cycle))
system.cpu.timesIdled                              82                       # Number of times that the entire CPU went into an idle state and unscheduled itself (Count)
system.cpu.idleCycles                            6151                       # Total number of cycles that the CPU has spent unscheduled due to idling (Cycle)
system.cpu.committedInsts                    10000003                       # Number of Instructions Simulated (Count)
system.cpu.committedOps                      10000003                       # Number of Ops (including micro ops) Simulated (Count)
system.cpu.cpi                               0.394868                       # CPI: Cycles Per Instruction ((Cycle/Count))
system.cpu.totalCpi                          0.394868                       # CPI: Total CPI of All Threads ((Cycle/Count))
system.cpu.ipc                               2.532494                       # IPC: Instructions Per Cycle ((Count/Cycle))
system.cpu.totalIpc                          2.532494                       # IPC: Total IPC of All Threads ((Count/Cycle))
system.cpu.intRegfileReads                    6237686                       # Number of integer regfile reads (Count)
system.cpu.intRegfileWrites                   2095270                       # Number of integer regfile writes (Count)
system.cpu.fpRegfileReads                     9762025                       # Number of floating regfile reads (Count)
system.cpu.fpRegfileWrites                    6937374                       # Number of floating regfile writes (Count)
system.cpu.miscRegfileReads                  88492231                       # number of misc regfile reads (Count)
system.cpu.miscRegfileWrites                  7964758                       # number of misc regfile writes (Count)
system.cpu.lastCommitTick                  1974338500                       # The last tick to commit an instruction (Count)
system.cpu.MemDepUnit__0.insertedLoads        2632589                       # Number of loads inserted to the mem dependence unit. (Count)
system.cpu.MemDepUnit__0.insertedStores        961569                       # Number of stores inserted to the mem dependence unit. (Count)
system.cpu.MemDepUnit__0.conflictingLoads       129694                       # Number of conflicting loads. (Count)
system.cpu.MemDepUnit__0.conflictingStores        33565                       # Number of conflicting stores. (Count)
system.cpu.MemDepUnit__1.insertedLoads              0                       # Number of loads inserted to the mem dependence unit. (Count)
system.cpu.MemDepUnit__1.insertedStores             0                       # Number of stores inserted to the mem dependence unit. (Count)
system.cpu.MemDepUnit__1.conflictingLoads            0                       # Number of conflicting loads. (Count)
system.cpu.MemDepUnit__1.conflictingStores            0                       # Number of conflicting stores. (Count)
system.cpu.MemDepUnit__2.insertedLoads              0                       # Number of loads inserted to the mem dependence unit. (Count)
system.cpu.MemDepUnit__2.insertedStores             0                       # Number of stores inserted to the mem dependence unit. (Count)
system.cpu.MemDepUnit__2.conflictingLoads            0                       # Number of conflicting loads. (Count)
system.cpu.MemDepUnit__2.conflictingStores            0                       # Number of conflicting stores. (Count)
system.cpu.MemDepUnit__3.insertedLoads              0                       # Number of loads inserted to the mem dependence unit. (Count)
system.cpu.MemDepUnit__3.insertedStores             0                       # Number of stores inserted to the mem dependence unit. (Count)
system.cpu.MemDepUnit__3.conflictingLoads            0                       # Number of conflicting loads. (Count)
system.cpu.MemDepUnit__3.conflictingStores            0                       # Number of conflicting stores. (Count)
system.cpu.branchPred.lookups                       0                       # Number of BP lookups (Count)
system.cpu.branchPred.condPredicted                 0                       # Number of conditional branches predicted (Count)
system.cpu.branchPred.condIncorrect               224                       # Number of conditional branches incorrect (Count)
system.cpu.branchPred.BTBLookups                    0                       # Number of BTB lookups (Count)
system.cpu.branchPred.BTBHits                       0                       # Number of BTB hits (Count)
system.cpu.branchPred.BTBHitRatio                 nan                       # BTB Hit Ratio (Ratio)
system.cpu.branchPred.RASUsed                       0                       # Number of times the RAS was used to get a target. (Count)
system.cpu.branchPred.RASIncorrect                  0                       # Number of incorrect RAS predictions. (Count)
system.cpu.branchPred.indirectLookups               0                       # Number of indirect predictor lookups. (Count)
system.cpu.branchPred.indirectHits                  0                       # Number of indirect target hits. (Count)
system.cpu.branchPred.indirectMisses                0                       # Number of indirect misses. (Count)
system.cpu.branchPred.indirectMispredicted            0                       # Number of mispredicted indirect branches. (Count)
system.cpu.branchPred.stream_tage.coldMisses            0                       # ittage the provider component lookup hit (Count)
system.cpu.branchPred.stream_tage.capacityMisses            0                       # ittage the alternate prediction lookup hit (Count)
system.cpu.branchPred.stream_tage.compulsoryMisses            0                       # ittage the provider component pred hit (Count)
system.cpu.branchPred.stream_tage.providerTableDist::samples      1420990                       # the distribution of provider component (Count)
system.cpu.branchPred.stream_tage.providerTableDist::mean     0.345602                       # the distribution of provider component (Count)
system.cpu.branchPred.stream_tage.providerTableDist::stdev     1.561323                       # the distribution of provider component (Count)
system.cpu.branchPred.stream_tage.providerTableDist::underflows            0      0.00%      0.00% # the distribution of provider component (Count)
system.cpu.branchPred.stream_tage.providerTableDist::0      1299434     91.45%     91.45% # the distribution of provider component (Count)
system.cpu.branchPred.stream_tage.providerTableDist::1        65489      4.61%     96.05% # the distribution of provider component (Count)
system.cpu.branchPred.stream_tage.providerTableDist::2         1074      0.08%     96.13% # the distribution of provider component (Count)
system.cpu.branchPred.stream_tage.providerTableDist::3         3248      0.23%     96.36% # the distribution of provider component (Count)
system.cpu.branchPred.stream_tage.providerTableDist::4         1887      0.13%     96.49% # the distribution of provider component (Count)
system.cpu.branchPred.stream_tage.providerTableDist::5         1828      0.13%     96.62% # the distribution of provider component (Count)
system.cpu.branchPred.stream_tage.providerTableDist::6        12610      0.89%     97.51% # the distribution of provider component (Count)
system.cpu.branchPred.stream_tage.providerTableDist::7         8327      0.59%     98.09% # the distribution of provider component (Count)
system.cpu.branchPred.stream_tage.providerTableDist::8         8034      0.57%     98.66% # the distribution of provider component (Count)
system.cpu.branchPred.stream_tage.providerTableDist::9         2094      0.15%     98.81% # the distribution of provider component (Count)
system.cpu.branchPred.stream_tage.providerTableDist::10         6654      0.47%     99.27% # the distribution of provider component (Count)
system.cpu.branchPred.stream_tage.providerTableDist::11        10311      0.73%    100.00% # the distribution of provider component (Count)
system.cpu.branchPred.stream_tage.providerTableDist::12            0      0.00%    100.00% # the distribution of provider component (Count)
system.cpu.branchPred.stream_tage.providerTableDist::13            0      0.00%    100.00% # the distribution of provider component (Count)
system.cpu.branchPred.stream_tage.providerTableDist::14            0      0.00%    100.00% # the distribution of provider component (Count)
system.cpu.branchPred.stream_tage.providerTableDist::15            0      0.00%    100.00% # the distribution of provider component (Count)
system.cpu.branchPred.stream_tage.providerTableDist::16            0      0.00%    100.00% # the distribution of provider component (Count)
system.cpu.branchPred.stream_tage.providerTableDist::17            0      0.00%    100.00% # the distribution of provider component (Count)
system.cpu.branchPred.stream_tage.providerTableDist::18            0      0.00%    100.00% # the distribution of provider component (Count)
system.cpu.branchPred.stream_tage.providerTableDist::19            0      0.00%    100.00% # the distribution of provider component (Count)
system.cpu.branchPred.stream_tage.providerTableDist::20            0      0.00%    100.00% # the distribution of provider component (Count)
system.cpu.branchPred.stream_tage.providerTableDist::21            0      0.00%    100.00% # the distribution of provider component (Count)
system.cpu.branchPred.stream_tage.providerTableDist::overflows            0      0.00%    100.00% # the distribution of provider component (Count)
system.cpu.branchPred.stream_tage.providerTableDist::min_value            0                       # the distribution of provider component (Count)
system.cpu.branchPred.stream_tage.providerTableDist::max_value           11                       # the distribution of provider component (Count)
system.cpu.branchPred.stream_tage.providerTableDist::total      1420990                       # the distribution of provider component (Count)
system.cpu.commit.commitSquashedInsts            7803                       # The number of squashed insts skipped by commit (Count)
system.cpu.commit.commitNonSpecStalls              33                       # The number of times commit has been forced to stall to communicate backwards (Count)
system.cpu.commit.branchMispredicts               225                       # The number of times a branch was mispredicted (Count)
system.cpu.commit.numCommittedDist::samples      3941355                       # Number of insts commited each cycle (Count)
system.cpu.commit.numCommittedDist::mean     2.537199                       # Number of insts commited each cycle (Count)
system.cpu.commit.numCommittedDist::stdev     3.521769                       # Number of insts commited each cycle (Count)
system.cpu.commit.numCommittedDist::underflows            0      0.00%      0.00% # Number of insts commited each cycle (Count)
system.cpu.commit.numCommittedDist::0         2438612     61.87%     61.87% # Number of insts commited each cycle (Count)
system.cpu.commit.numCommittedDist::1           73539      1.87%     63.74% # Number of insts commited each cycle (Count)
system.cpu.commit.numCommittedDist::2           75986      1.93%     65.67% # Number of insts commited each cycle (Count)
system.cpu.commit.numCommittedDist::3           93403      2.37%     68.04% # Number of insts commited each cycle (Count)
system.cpu.commit.numCommittedDist::4           56884      1.44%     69.48% # Number of insts commited each cycle (Count)
system.cpu.commit.numCommittedDist::5           61745      1.57%     71.05% # Number of insts commited each cycle (Count)
system.cpu.commit.numCommittedDist::6           60131      1.53%     72.57% # Number of insts commited each cycle (Count)
system.cpu.commit.numCommittedDist::7           51204      1.30%     73.87% # Number of insts commited each cycle (Count)
system.cpu.commit.numCommittedDist::8         1029851     26.13%    100.00% # Number of insts commited each cycle (Count)
system.cpu.commit.numCommittedDist::overflows            0      0.00%    100.00% # Number of insts commited each cycle (Count)
system.cpu.commit.numCommittedDist::min_value            0                       # Number of insts commited each cycle (Count)
system.cpu.commit.numCommittedDist::max_value            8                       # Number of insts commited each cycle (Count)
system.cpu.commit.numCommittedDist::total      3941355                       # Number of insts commited each cycle (Count)
system.cpu.commit.instsCommitted             10000003                       # Number of instructions committed (Count)
system.cpu.commit.opsCommitted               10000003                       # Number of ops (including micro ops) committed (Count)
system.cpu.commit.memRefs                     3590553                       # Number of memory references committed (Count)
system.cpu.commit.loads                       2630085                       # Number of loads committed (Count)
system.cpu.commit.amos                              0                       # Number of atomic instructions committed (Count)
system.cpu.commit.membars                           0                       # Number of memory barriers committed (Count)
system.cpu.commit.branches                      10767                       # Number of branches committed (Count)
system.cpu.commit.vectorInstructions                0                       # Number of committed Vector instructions. (Count)
system.cpu.commit.floating                    8777273                       # Number of committed floating point instructions. (Count)
system.cpu.commit.integer                     6866653                       # Number of committed integer instructions. (Count)
system.cpu.commit.functionCalls                     0                       # Number of function calls committed. (Count)
system.cpu.commit.committedInstType_0::No_OpClass           32      0.00%      0.00% # Class of committed instruction (Count)
system.cpu.commit.committedInstType_0::IntAlu       409996      4.10%      4.10% # Class of committed instruction (Count)
system.cpu.commit.committedInstType_0::IntMult            0      0.00%      4.10% # Class of committed instruction (Count)
system.cpu.commit.committedInstType_0::IntDiv            0      0.00%      4.10% # Class of committed instruction (Count)
system.cpu.commit.committedInstType_0::FloatAdd       694273      6.94%     11.04% # Class of committed instruction (Count)
system.cpu.commit.committedInstType_0::FloatCmp            0      0.00%     11.04% # Class of committed instruction (Count)
system.cpu.commit.committedInstType_0::FloatCvt      2866073     28.66%     39.70% # Class of committed instruction (Count)
system.cpu.commit.committedInstType_0::FloatMult       720506      7.21%     46.91% # Class of committed instruction (Count)
system.cpu.commit.committedInstType_0::FloatMultAcc      1649189     16.49%     63.40% # Class of committed instruction (Count)
system.cpu.commit.committedInstType_0::FloatDiv         5337      0.05%     63.45% # Class of committed instruction (Count)
system.cpu.commit.committedInstType_0::FloatMisc        64044      0.64%     64.09% # Class of committed instruction (Count)
system.cpu.commit.committedInstType_0::FloatSqrt            0      0.00%     64.09% # Class of committed instruction (Count)
system.cpu.commit.committedInstType_0::SimdAdd            0      0.00%     64.09% # Class of committed instruction (Count)
system.cpu.commit.committedInstType_0::SimdAddAcc            0      0.00%     64.09% # Class of committed instruction (Count)
system.cpu.commit.committedInstType_0::SimdAlu            0      0.00%     64.09% # Class of committed instruction (Count)
system.cpu.commit.committedInstType_0::SimdCmp            0      0.00%     64.09% # Class of committed instruction (Count)
system.cpu.commit.committedInstType_0::SimdCvt            0      0.00%     64.09% # Class of committed instruction (Count)
system.cpu.commit.committedInstType_0::SimdMisc            0      0.00%     64.09% # Class of committed instruction (Count)
system.cpu.commit.committedInstType_0::SimdMult            0      0.00%     64.09% # Class of committed instruction (Count)
system.cpu.commit.committedInstType_0::SimdMultAcc            0      0.00%     64.09% # Class of committed instruction (Count)
system.cpu.commit.committedInstType_0::SimdShift            0      0.00%     64.09% # Class of committed instruction (Count)
system.cpu.commit.committedInstType_0::SimdShiftAcc            0      0.00%     64.09% # Class of committed instruction (Count)
system.cpu.commit.committedInstType_0::SimdDiv            0      0.00%     64.09% # Class of committed instruction (Count)
system.cpu.commit.committedInstType_0::SimdSqrt            0      0.00%     64.09% # Class of committed instruction (Count)
system.cpu.commit.committedInstType_0::SimdFloatAdd            0      0.00%     64.09% # Class of committed instruction (Count)
system.cpu.commit.committedInstType_0::SimdFloatAlu            0      0.00%     64.09% # Class of committed instruction (Count)
system.cpu.commit.committedInstType_0::SimdFloatCmp            0      0.00%     64.09% # Class of committed instruction (Count)
system.cpu.commit.committedInstType_0::SimdFloatCvt            0      0.00%     64.09% # Class of committed instruction (Count)
system.cpu.commit.committedInstType_0::SimdFloatDiv            0      0.00%     64.09% # Class of committed instruction (Count)
system.cpu.commit.committedInstType_0::SimdFloatMisc            0      0.00%     64.09% # Class of committed instruction (Count)
system.cpu.commit.committedInstType_0::SimdFloatMult            0      0.00%     64.09% # Class of committed instruction (Count)
system.cpu.commit.committedInstType_0::SimdFloatMultAcc            0      0.00%     64.09% # Class of committed instruction (Count)
system.cpu.commit.committedInstType_0::SimdFloatSqrt            0      0.00%     64.09% # Class of committed instruction (Count)
system.cpu.commit.committedInstType_0::SimdReduceAdd            0      0.00%     64.09% # Class of committed instruction (Count)
system.cpu.commit.committedInstType_0::SimdReduceAlu            0      0.00%     64.09% # Class of committed instruction (Count)
system.cpu.commit.committedInstType_0::SimdReduceCmp            0      0.00%     64.09% # Class of committed instruction (Count)
system.cpu.commit.committedInstType_0::SimdFloatReduceAdd            0      0.00%     64.09% # Class of committed instruction (Count)
system.cpu.commit.committedInstType_0::SimdFloatReduceCmp            0      0.00%     64.09% # Class of committed instruction (Count)
system.cpu.commit.committedInstType_0::SimdAes            0      0.00%     64.09% # Class of committed instruction (Count)
system.cpu.commit.committedInstType_0::SimdAesMix            0      0.00%     64.09% # Class of committed instruction (Count)
system.cpu.commit.committedInstType_0::SimdSha1Hash            0      0.00%     64.09% # Class of committed instruction (Count)
system.cpu.commit.committedInstType_0::SimdSha1Hash2            0      0.00%     64.09% # Class of committed instruction (Count)
system.cpu.commit.committedInstType_0::SimdSha256Hash            0      0.00%     64.09% # Class of committed instruction (Count)
system.cpu.commit.committedInstType_0::SimdSha256Hash2            0      0.00%     64.09% # Class of committed instruction (Count)
system.cpu.commit.committedInstType_0::SimdShaSigma2            0      0.00%     64.09% # Class of committed instruction (Count)
system.cpu.commit.committedInstType_0::SimdShaSigma3            0      0.00%     64.09% # Class of committed instruction (Count)
system.cpu.commit.committedInstType_0::SimdPredAlu            0      0.00%     64.09% # Class of committed instruction (Count)
system.cpu.commit.committedInstType_0::MemRead       664776      6.65%     70.74% # Class of committed instruction (Count)
system.cpu.commit.committedInstType_0::MemWrite       147926      1.48%     72.22% # Class of committed instruction (Count)
system.cpu.commit.committedInstType_0::FloatMemRead      1965309     19.65%     91.87% # Class of committed instruction (Count)
system.cpu.commit.committedInstType_0::FloatMemWrite       812542      8.13%    100.00% # Class of committed instruction (Count)
system.cpu.commit.committedInstType_0::IprAccess            0      0.00%    100.00% # Class of committed instruction (Count)
system.cpu.commit.committedInstType_0::InstPrefetch            0      0.00%    100.00% # Class of committed instruction (Count)
system.cpu.commit.committedInstType_0::total     10000003                       # Class of committed instruction (Count)
system.cpu.commit.commitEligibleSamples       1029851                       # number cycles where commit BW limit reached (Cycle)
system.cpu.dcache.demandHits::cpu.data        3368995                       # number of demand (read+write) hits (Count)
system.cpu.dcache.demandHits::total           3368995                       # number of demand (read+write) hits (Count)
system.cpu.dcache.overallHits::cpu.data       3368995                       # number of overall hits (Count)
system.cpu.dcache.overallHits::total          3368995                       # number of overall hits (Count)
system.cpu.dcache.demandMisses::cpu.data        30435                       # number of demand (read+write) misses (Count)
system.cpu.dcache.demandMisses::total           30435                       # number of demand (read+write) misses (Count)
system.cpu.dcache.overallMisses::cpu.data        30435                       # number of overall misses (Count)
system.cpu.dcache.overallMisses::total          30435                       # number of overall misses (Count)
system.cpu.dcache.demandMissLatency::cpu.data   2723102000                       # number of demand (read+write) miss ticks (Tick)
system.cpu.dcache.demandMissLatency::total   2723102000                       # number of demand (read+write) miss ticks (Tick)
system.cpu.dcache.overallMissLatency::cpu.data   2723102000                       # number of overall miss ticks (Tick)
system.cpu.dcache.overallMissLatency::total   2723102000                       # number of overall miss ticks (Tick)
system.cpu.dcache.demandAccesses::cpu.data      3399430                       # number of demand (read+write) accesses (Count)
system.cpu.dcache.demandAccesses::total       3399430                       # number of demand (read+write) accesses (Count)
system.cpu.dcache.overallAccesses::cpu.data      3399430                       # number of overall (read+write) accesses (Count)
system.cpu.dcache.overallAccesses::total      3399430                       # number of overall (read+write) accesses (Count)
system.cpu.dcache.demandMissRate::cpu.data     0.008953                       # miss rate for demand accesses (Ratio)
system.cpu.dcache.demandMissRate::total      0.008953                       # miss rate for demand accesses (Ratio)
system.cpu.dcache.overallMissRate::cpu.data     0.008953                       # miss rate for overall accesses (Ratio)
system.cpu.dcache.overallMissRate::total     0.008953                       # miss rate for overall accesses (Ratio)
system.cpu.dcache.demandAvgMissLatency::cpu.data 89472.712338                       # average overall miss latency in ticks ((Tick/Count))
system.cpu.dcache.demandAvgMissLatency::total 89472.712338                       # average overall miss latency in ticks ((Tick/Count))
system.cpu.dcache.overallAvgMissLatency::cpu.data 89472.712338                       # average overall miss latency ((Tick/Count))
system.cpu.dcache.overallAvgMissLatency::total 89472.712338                       # average overall miss latency ((Tick/Count))
system.cpu.dcache.blockedCycles::no_mshrs          113                       # number of cycles access was blocked (Cycle)
system.cpu.dcache.blockedCycles::no_targets            0                       # number of cycles access was blocked (Cycle)
system.cpu.dcache.blockedCauses::no_mshrs           14                       # number of times access was blocked (Count)
system.cpu.dcache.blockedCauses::no_targets            0                       # number of times access was blocked (Count)
system.cpu.dcache.avgBlocked::no_mshrs       8.071429                       # average number of cycles each access was blocked ((Cycle/Count))
system.cpu.dcache.avgBlocked::no_targets          nan                       # average number of cycles each access was blocked ((Cycle/Count))
system.cpu.dcache.writebacks::writebacks         3959                       # number of writebacks (Count)
system.cpu.dcache.writebacks::total              3959                       # number of writebacks (Count)
system.cpu.dcache.demandMshrHits::cpu.data          179                       # number of demand (read+write) MSHR hits (Count)
system.cpu.dcache.demandMshrHits::total           179                       # number of demand (read+write) MSHR hits (Count)
system.cpu.dcache.overallMshrHits::cpu.data          179                       # number of overall MSHR hits (Count)
system.cpu.dcache.overallMshrHits::total          179                       # number of overall MSHR hits (Count)
system.cpu.dcache.demandMshrMisses::cpu.data        30256                       # number of demand (read+write) MSHR misses (Count)
system.cpu.dcache.demandMshrMisses::total        30256                       # number of demand (read+write) MSHR misses (Count)
system.cpu.dcache.overallMshrMisses::cpu.data        30256                       # number of overall MSHR misses (Count)
system.cpu.dcache.overallMshrMisses::total        30256                       # number of overall MSHR misses (Count)
system.cpu.dcache.overallMshrUncacheable::cpu.data            2                       # number of overall MSHR uncacheable misses (Count)
system.cpu.dcache.overallMshrUncacheable::total            2                       # number of overall MSHR uncacheable misses (Count)
system.cpu.dcache.demandMshrMissLatency::cpu.data   2697307000                       # number of demand (read+write) MSHR miss ticks (Tick)
system.cpu.dcache.demandMshrMissLatency::total   2697307000                       # number of demand (read+write) MSHR miss ticks (Tick)
system.cpu.dcache.overallMshrMissLatency::cpu.data   2697307000                       # number of overall MSHR miss ticks (Tick)
system.cpu.dcache.overallMshrMissLatency::total   2697307000                       # number of overall MSHR miss ticks (Tick)
system.cpu.dcache.demandMshrMissRate::cpu.data     0.008900                       # mshr miss ratio for demand accesses (Ratio)
system.cpu.dcache.demandMshrMissRate::total     0.008900                       # mshr miss ratio for demand accesses (Ratio)
system.cpu.dcache.overallMshrMissRate::cpu.data     0.008900                       # mshr miss ratio for overall accesses (Ratio)
system.cpu.dcache.overallMshrMissRate::total     0.008900                       # mshr miss ratio for overall accesses (Ratio)
system.cpu.dcache.demandAvgMshrMissLatency::cpu.data 89149.491010                       # average overall mshr miss latency ((Tick/Count))
system.cpu.dcache.demandAvgMshrMissLatency::total 89149.491010                       # average overall mshr miss latency ((Tick/Count))
system.cpu.dcache.overallAvgMshrMissLatency::cpu.data 89149.491010                       # average overall mshr miss latency ((Tick/Count))
system.cpu.dcache.overallAvgMshrMissLatency::total 89149.491010                       # average overall mshr miss latency ((Tick/Count))
system.cpu.dcache.replacements                  28208                       # number of replacements (Count)
system.cpu.dcache.ReadReq.hits::cpu.data      2412603                       # number of ReadReq hits (Count)
system.cpu.dcache.ReadReq.hits::total         2412603                       # number of ReadReq hits (Count)
system.cpu.dcache.ReadReq.misses::cpu.data        26361                       # number of ReadReq misses (Count)
system.cpu.dcache.ReadReq.misses::total         26361                       # number of ReadReq misses (Count)
system.cpu.dcache.ReadReq.missLatency::cpu.data   2336180500                       # number of ReadReq miss ticks (Tick)
system.cpu.dcache.ReadReq.missLatency::total   2336180500                       # number of ReadReq miss ticks (Tick)
system.cpu.dcache.ReadReq.accesses::cpu.data      2438964                       # number of ReadReq accesses(hits+misses) (Count)
system.cpu.dcache.ReadReq.accesses::total      2438964                       # number of ReadReq accesses(hits+misses) (Count)
system.cpu.dcache.ReadReq.missRate::cpu.data     0.010808                       # miss rate for ReadReq accesses (Ratio)
system.cpu.dcache.ReadReq.missRate::total     0.010808                       # miss rate for ReadReq accesses (Ratio)
system.cpu.dcache.ReadReq.avgMissLatency::cpu.data 88622.605364                       # average ReadReq miss latency ((Tick/Count))
system.cpu.dcache.ReadReq.avgMissLatency::total 88622.605364                       # average ReadReq miss latency ((Tick/Count))
system.cpu.dcache.ReadReq.mshrHits::cpu.data          179                       # number of ReadReq MSHR hits (Count)
system.cpu.dcache.ReadReq.mshrHits::total          179                       # number of ReadReq MSHR hits (Count)
system.cpu.dcache.ReadReq.mshrMisses::cpu.data        26182                       # number of ReadReq MSHR misses (Count)
system.cpu.dcache.ReadReq.mshrMisses::total        26182                       # number of ReadReq MSHR misses (Count)
system.cpu.dcache.ReadReq.mshrMissLatency::cpu.data   2312422500                       # number of ReadReq MSHR miss ticks (Tick)
system.cpu.dcache.ReadReq.mshrMissLatency::total   2312422500                       # number of ReadReq MSHR miss ticks (Tick)
system.cpu.dcache.ReadReq.mshrMissRate::cpu.data     0.010735                       # mshr miss rate for ReadReq accesses (Ratio)
system.cpu.dcache.ReadReq.mshrMissRate::total     0.010735                       # mshr miss rate for ReadReq accesses (Ratio)
system.cpu.dcache.ReadReq.avgMshrMissLatency::cpu.data 88321.079368                       # average ReadReq mshr miss latency ((Tick/Count))
system.cpu.dcache.ReadReq.avgMshrMissLatency::total 88321.079368                       # average ReadReq mshr miss latency ((Tick/Count))
system.cpu.dcache.WriteReq.hits::cpu.data       956392                       # number of WriteReq hits (Count)
system.cpu.dcache.WriteReq.hits::total         956392                       # number of WriteReq hits (Count)
system.cpu.dcache.WriteReq.misses::cpu.data         4074                       # number of WriteReq misses (Count)
system.cpu.dcache.WriteReq.misses::total         4074                       # number of WriteReq misses (Count)
system.cpu.dcache.WriteReq.missLatency::cpu.data    386921500                       # number of WriteReq miss ticks (Tick)
system.cpu.dcache.WriteReq.missLatency::total    386921500                       # number of WriteReq miss ticks (Tick)
system.cpu.dcache.WriteReq.accesses::cpu.data       960466                       # number of WriteReq accesses(hits+misses) (Count)
system.cpu.dcache.WriteReq.accesses::total       960466                       # number of WriteReq accesses(hits+misses) (Count)
system.cpu.dcache.WriteReq.missRate::cpu.data     0.004242                       # miss rate for WriteReq accesses (Ratio)
system.cpu.dcache.WriteReq.missRate::total     0.004242                       # miss rate for WriteReq accesses (Ratio)
system.cpu.dcache.WriteReq.avgMissLatency::cpu.data 94973.367698                       # average WriteReq miss latency ((Tick/Count))
system.cpu.dcache.WriteReq.avgMissLatency::total 94973.367698                       # average WriteReq miss latency ((Tick/Count))
system.cpu.dcache.WriteReq.mshrMisses::cpu.data         4074                       # number of WriteReq MSHR misses (Count)
system.cpu.dcache.WriteReq.mshrMisses::total         4074                       # number of WriteReq MSHR misses (Count)
system.cpu.dcache.WriteReq.mshrUncacheable::cpu.data            2                       # number of WriteReq MSHR uncacheable (Count)
system.cpu.dcache.WriteReq.mshrUncacheable::total            2                       # number of WriteReq MSHR uncacheable (Count)
system.cpu.dcache.WriteReq.mshrMissLatency::cpu.data    384884500                       # number of WriteReq MSHR miss ticks (Tick)
system.cpu.dcache.WriteReq.mshrMissLatency::total    384884500                       # number of WriteReq MSHR miss ticks (Tick)
system.cpu.dcache.WriteReq.mshrMissRate::cpu.data     0.004242                       # mshr miss rate for WriteReq accesses (Ratio)
system.cpu.dcache.WriteReq.mshrMissRate::total     0.004242                       # mshr miss rate for WriteReq accesses (Ratio)
system.cpu.dcache.WriteReq.avgMshrMissLatency::cpu.data 94473.367698                       # average WriteReq mshr miss latency ((Tick/Count))
system.cpu.dcache.WriteReq.avgMshrMissLatency::total 94473.367698                       # average WriteReq mshr miss latency ((Tick/Count))
system.cpu.dcache.power_state.pwrStateResidencyTicks::UNDEFINED   1974338500                       # Cumulative time (in ticks) in various power states (Tick)
system.cpu.dcache.tags.tagsInUse          1955.488467                       # Average ticks per tags in use ((Tick/Count))
system.cpu.dcache.tags.totalRefs               491220                       # Total number of references to valid blocks. (Count)
system.cpu.dcache.tags.sampledRefs              28208                       # Sample count of references to valid blocks. (Count)
system.cpu.dcache.tags.avgRefs              17.414209                       # Average number of references to valid blocks. ((Count/Count))
system.cpu.dcache.tags.warmupTick              153500                       # The tick when the warmup percentage was hit. (Tick)
system.cpu.dcache.tags.occupancies::cpu.data  1955.488467                       # Average occupied blocks per tick, per requestor ((Count/Tick))
system.cpu.dcache.tags.avgOccs::cpu.data     0.954828                       # Average percentage of cache occupancy ((Ratio/Tick))
system.cpu.dcache.tags.avgOccs::total        0.954828                       # Average percentage of cache occupancy ((Ratio/Tick))
system.cpu.dcache.tags.occupanciesTaskId::1024         2048                       # Occupied blocks per task id (Count)
system.cpu.dcache.tags.ageTaskId_1024::0          148                       # Occupied blocks per task id, per block age (Count)
system.cpu.dcache.tags.ageTaskId_1024::1          878                       # Occupied blocks per task id, per block age (Count)
system.cpu.dcache.tags.ageTaskId_1024::2          999                       # Occupied blocks per task id, per block age (Count)
system.cpu.dcache.tags.ageTaskId_1024::3           23                       # Occupied blocks per task id, per block age (Count)
system.cpu.dcache.tags.ratioOccsTaskId::1024            1                       # Ratio of occupied blocks and all blocks, per task id (Ratio)
system.cpu.dcache.tags.tagAccesses           27225696                       # Number of tag accesses (Count)
system.cpu.dcache.tags.dataAccesses          27225696                       # Number of data accesses (Count)
system.cpu.dcache.tags.power_state.pwrStateResidencyTicks::UNDEFINED   1974338500                       # Cumulative time (in ticks) in various power states (Tick)
system.cpu.decode.idleCycles                   151014                       # Number of cycles decode is idle (Cycle)
system.cpu.decode.blockedCycles               2290779                       # Number of cycles decode is blocked (Cycle)
system.cpu.decode.runCycles                   1346342                       # Number of cycles decode is running (Cycle)
system.cpu.decode.unblockCycles                154001                       # Number of cycles decode is unblocking (Cycle)
system.cpu.decode.squashCycles                    391                       # Number of cycles decode is squashing (Cycle)
system.cpu.decode.branchResolved                 5642                       # Number of times decode resolved a branch (Count)
system.cpu.decode.branchMispred                     9                       # Number of times decode detected a branch misprediction (Count)
system.cpu.decode.decodedInsts               10012509                       # Number of instructions handled by decode (Count)
system.cpu.decode.squashedInsts                    33                       # Number of squashed instructions handled by decode (Count)
system.cpu.dtb_walker_cache.demandHits::cpu.mmu.dtb.walker          550                       # number of demand (read+write) hits (Count)
system.cpu.dtb_walker_cache.demandHits::total          550                       # number of demand (read+write) hits (Count)
system.cpu.dtb_walker_cache.overallHits::cpu.mmu.dtb.walker          550                       # number of overall hits (Count)
system.cpu.dtb_walker_cache.overallHits::total          550                       # number of overall hits (Count)
system.cpu.dtb_walker_cache.demandMisses::cpu.mmu.dtb.walker          977                       # number of demand (read+write) misses (Count)
system.cpu.dtb_walker_cache.demandMisses::total          977                       # number of demand (read+write) misses (Count)
system.cpu.dtb_walker_cache.overallMisses::cpu.mmu.dtb.walker          977                       # number of overall misses (Count)
system.cpu.dtb_walker_cache.overallMisses::total          977                       # number of overall misses (Count)
system.cpu.dtb_walker_cache.demandMissLatency::cpu.mmu.dtb.walker     79434000                       # number of demand (read+write) miss ticks (Tick)
system.cpu.dtb_walker_cache.demandMissLatency::total     79434000                       # number of demand (read+write) miss ticks (Tick)
system.cpu.dtb_walker_cache.overallMissLatency::cpu.mmu.dtb.walker     79434000                       # number of overall miss ticks (Tick)
system.cpu.dtb_walker_cache.overallMissLatency::total     79434000                       # number of overall miss ticks (Tick)
system.cpu.dtb_walker_cache.demandAccesses::cpu.mmu.dtb.walker         1527                       # number of demand (read+write) accesses (Count)
system.cpu.dtb_walker_cache.demandAccesses::total         1527                       # number of demand (read+write) accesses (Count)
system.cpu.dtb_walker_cache.overallAccesses::cpu.mmu.dtb.walker         1527                       # number of overall (read+write) accesses (Count)
system.cpu.dtb_walker_cache.overallAccesses::total         1527                       # number of overall (read+write) accesses (Count)
system.cpu.dtb_walker_cache.demandMissRate::cpu.mmu.dtb.walker     0.639817                       # miss rate for demand accesses (Ratio)
system.cpu.dtb_walker_cache.demandMissRate::total     0.639817                       # miss rate for demand accesses (Ratio)
system.cpu.dtb_walker_cache.overallMissRate::cpu.mmu.dtb.walker     0.639817                       # miss rate for overall accesses (Ratio)
system.cpu.dtb_walker_cache.overallMissRate::total     0.639817                       # miss rate for overall accesses (Ratio)
system.cpu.dtb_walker_cache.demandAvgMissLatency::cpu.mmu.dtb.walker 81303.991812                       # average overall miss latency in ticks ((Tick/Count))
system.cpu.dtb_walker_cache.demandAvgMissLatency::total 81303.991812                       # average overall miss latency in ticks ((Tick/Count))
system.cpu.dtb_walker_cache.overallAvgMissLatency::cpu.mmu.dtb.walker 81303.991812                       # average overall miss latency ((Tick/Count))
system.cpu.dtb_walker_cache.overallAvgMissLatency::total 81303.991812                       # average overall miss latency ((Tick/Count))
system.cpu.dtb_walker_cache.blockedCycles::no_mshrs            0                       # number of cycles access was blocked (Cycle)
system.cpu.dtb_walker_cache.blockedCycles::no_targets            0                       # number of cycles access was blocked (Cycle)
system.cpu.dtb_walker_cache.blockedCauses::no_mshrs            0                       # number of times access was blocked (Count)
system.cpu.dtb_walker_cache.blockedCauses::no_targets            0                       # number of times access was blocked (Count)
system.cpu.dtb_walker_cache.avgBlocked::no_mshrs          nan                       # average number of cycles each access was blocked ((Cycle/Count))
system.cpu.dtb_walker_cache.avgBlocked::no_targets          nan                       # average number of cycles each access was blocked ((Cycle/Count))
system.cpu.dtb_walker_cache.demandMshrMisses::cpu.mmu.dtb.walker          977                       # number of demand (read+write) MSHR misses (Count)
system.cpu.dtb_walker_cache.demandMshrMisses::total          977                       # number of demand (read+write) MSHR misses (Count)
system.cpu.dtb_walker_cache.overallMshrMisses::cpu.mmu.dtb.walker          977                       # number of overall MSHR misses (Count)
system.cpu.dtb_walker_cache.overallMshrMisses::total          977                       # number of overall MSHR misses (Count)
system.cpu.dtb_walker_cache.demandMshrMissLatency::cpu.mmu.dtb.walker     78457000                       # number of demand (read+write) MSHR miss ticks (Tick)
system.cpu.dtb_walker_cache.demandMshrMissLatency::total     78457000                       # number of demand (read+write) MSHR miss ticks (Tick)
system.cpu.dtb_walker_cache.overallMshrMissLatency::cpu.mmu.dtb.walker     78457000                       # number of overall MSHR miss ticks (Tick)
system.cpu.dtb_walker_cache.overallMshrMissLatency::total     78457000                       # number of overall MSHR miss ticks (Tick)
system.cpu.dtb_walker_cache.demandMshrMissRate::cpu.mmu.dtb.walker     0.639817                       # mshr miss ratio for demand accesses (Ratio)
system.cpu.dtb_walker_cache.demandMshrMissRate::total     0.639817                       # mshr miss ratio for demand accesses (Ratio)
system.cpu.dtb_walker_cache.overallMshrMissRate::cpu.mmu.dtb.walker     0.639817                       # mshr miss ratio for overall accesses (Ratio)
system.cpu.dtb_walker_cache.overallMshrMissRate::total     0.639817                       # mshr miss ratio for overall accesses (Ratio)
system.cpu.dtb_walker_cache.demandAvgMshrMissLatency::cpu.mmu.dtb.walker 80303.991812                       # average overall mshr miss latency ((Tick/Count))
system.cpu.dtb_walker_cache.demandAvgMshrMissLatency::total 80303.991812                       # average overall mshr miss latency ((Tick/Count))
system.cpu.dtb_walker_cache.overallAvgMshrMissLatency::cpu.mmu.dtb.walker 80303.991812                       # average overall mshr miss latency ((Tick/Count))
system.cpu.dtb_walker_cache.overallAvgMshrMissLatency::total 80303.991812                       # average overall mshr miss latency ((Tick/Count))
system.cpu.dtb_walker_cache.replacements          961                       # number of replacements (Count)
system.cpu.dtb_walker_cache.ReadReq.hits::cpu.mmu.dtb.walker          550                       # number of ReadReq hits (Count)
system.cpu.dtb_walker_cache.ReadReq.hits::total          550                       # number of ReadReq hits (Count)
system.cpu.dtb_walker_cache.ReadReq.misses::cpu.mmu.dtb.walker          977                       # number of ReadReq misses (Count)
system.cpu.dtb_walker_cache.ReadReq.misses::total          977                       # number of ReadReq misses (Count)
system.cpu.dtb_walker_cache.ReadReq.missLatency::cpu.mmu.dtb.walker     79434000                       # number of ReadReq miss ticks (Tick)
system.cpu.dtb_walker_cache.ReadReq.missLatency::total     79434000                       # number of ReadReq miss ticks (Tick)
system.cpu.dtb_walker_cache.ReadReq.accesses::cpu.mmu.dtb.walker         1527                       # number of ReadReq accesses(hits+misses) (Count)
system.cpu.dtb_walker_cache.ReadReq.accesses::total         1527                       # number of ReadReq accesses(hits+misses) (Count)
system.cpu.dtb_walker_cache.ReadReq.missRate::cpu.mmu.dtb.walker     0.639817                       # miss rate for ReadReq accesses (Ratio)
system.cpu.dtb_walker_cache.ReadReq.missRate::total     0.639817                       # miss rate for ReadReq accesses (Ratio)
system.cpu.dtb_walker_cache.ReadReq.avgMissLatency::cpu.mmu.dtb.walker 81303.991812                       # average ReadReq miss latency ((Tick/Count))
system.cpu.dtb_walker_cache.ReadReq.avgMissLatency::total 81303.991812                       # average ReadReq miss latency ((Tick/Count))
system.cpu.dtb_walker_cache.ReadReq.mshrMisses::cpu.mmu.dtb.walker          977                       # number of ReadReq MSHR misses (Count)
system.cpu.dtb_walker_cache.ReadReq.mshrMisses::total          977                       # number of ReadReq MSHR misses (Count)
system.cpu.dtb_walker_cache.ReadReq.mshrMissLatency::cpu.mmu.dtb.walker     78457000                       # number of ReadReq MSHR miss ticks (Tick)
system.cpu.dtb_walker_cache.ReadReq.mshrMissLatency::total     78457000                       # number of ReadReq MSHR miss ticks (Tick)
system.cpu.dtb_walker_cache.ReadReq.mshrMissRate::cpu.mmu.dtb.walker     0.639817                       # mshr miss rate for ReadReq accesses (Ratio)
system.cpu.dtb_walker_cache.ReadReq.mshrMissRate::total     0.639817                       # mshr miss rate for ReadReq accesses (Ratio)
system.cpu.dtb_walker_cache.ReadReq.avgMshrMissLatency::cpu.mmu.dtb.walker 80303.991812                       # average ReadReq mshr miss latency ((Tick/Count))
system.cpu.dtb_walker_cache.ReadReq.avgMshrMissLatency::total 80303.991812                       # average ReadReq mshr miss latency ((Tick/Count))
system.cpu.dtb_walker_cache.power_state.pwrStateResidencyTicks::UNDEFINED   1974338500                       # Cumulative time (in ticks) in various power states (Tick)
system.cpu.dtb_walker_cache.tags.tagsInUse    15.959315                       # Average ticks per tags in use ((Tick/Count))
system.cpu.dtb_walker_cache.tags.totalRefs         1505                       # Total number of references to valid blocks. (Count)
system.cpu.dtb_walker_cache.tags.sampledRefs          961                       # Sample count of references to valid blocks. (Count)
system.cpu.dtb_walker_cache.tags.avgRefs     1.566077                       # Average number of references to valid blocks. ((Count/Count))
system.cpu.dtb_walker_cache.tags.warmupTick      1431500                       # The tick when the warmup percentage was hit. (Tick)
system.cpu.dtb_walker_cache.tags.occupancies::cpu.mmu.dtb.walker    15.959315                       # Average occupied blocks per tick, per requestor ((Count/Tick))
system.cpu.dtb_walker_cache.tags.avgOccs::cpu.mmu.dtb.walker     0.997457                       # Average percentage of cache occupancy ((Ratio/Tick))
system.cpu.dtb_walker_cache.tags.avgOccs::total     0.997457                       # Average percentage of cache occupancy ((Ratio/Tick))
system.cpu.dtb_walker_cache.tags.occupanciesTaskId::1024           16                       # Occupied blocks per task id (Count)
system.cpu.dtb_walker_cache.tags.ageTaskId_1024::0            1                       # Occupied blocks per task id, per block age (Count)
system.cpu.dtb_walker_cache.tags.ageTaskId_1024::1           15                       # Occupied blocks per task id, per block age (Count)
system.cpu.dtb_walker_cache.tags.ratioOccsTaskId::1024            1                       # Ratio of occupied blocks and all blocks, per task id (Ratio)
system.cpu.dtb_walker_cache.tags.tagAccesses         4031                       # Number of tag accesses (Count)
system.cpu.dtb_walker_cache.tags.dataAccesses         4031                       # Number of data accesses (Count)
system.cpu.dtb_walker_cache.tags.power_state.pwrStateResidencyTicks::UNDEFINED   1974338500                       # Cumulative time (in ticks) in various power states (Tick)
system.cpu.fetch.icacheStallCycles               9831                       # Number of cycles fetch is stalled on an Icache miss (Cycle)
system.cpu.fetch.insts                       10025065                       # Number of instructions fetch has processed (Count)
system.cpu.fetch.branches                        5824                       # Number of branches that fetch encountered (Count)
system.cpu.fetch.predictedBranches               5824                       # Number of branches that fetch has predicted taken (Count)
system.cpu.fetch.cycles                       3931869                       # Number of cycles fetch has run and was not squashing or blocked (Cycle)
system.cpu.fetch.squashCycles                     798                       # Number of cycles fetch has spent squashing (Cycle)
system.cpu.fetch.tlbCycles                        417                       # Number of cycles fetch has spent waiting for tlb (Cycle)
system.cpu.fetch.icacheWaitRetryStallCycles           11                       # Number of stall cycles due to full MSHR (Cycle)
system.cpu.fetch.cacheLines                    579187                       # Number of cache lines fetched (Count)
system.cpu.fetch.icacheSquashes                    15                       # Number of outstanding Icache misses that were squashed (Count)
system.cpu.fetch.nisnDist::samples            3942527                       # Number of instructions fetched each cycle (Total) (Count)
system.cpu.fetch.nisnDist::mean              2.542802                       # Number of instructions fetched each cycle (Total) (Count)
system.cpu.fetch.nisnDist::stdev             3.516631                       # Number of instructions fetched each cycle (Total) (Count)
system.cpu.fetch.nisnDist::underflows               0      0.00%      0.00% # Number of instructions fetched each cycle (Total) (Count)
system.cpu.fetch.nisnDist::0                  2193142     55.63%     55.63% # Number of instructions fetched each cycle (Total) (Count)
system.cpu.fetch.nisnDist::1                   416201     10.56%     66.18% # Number of instructions fetched each cycle (Total) (Count)
system.cpu.fetch.nisnDist::2                    99871      2.53%     68.72% # Number of instructions fetched each cycle (Total) (Count)
system.cpu.fetch.nisnDist::3                    50029      1.27%     69.99% # Number of instructions fetched each cycle (Total) (Count)
system.cpu.fetch.nisnDist::4                    15830      0.40%     70.39% # Number of instructions fetched each cycle (Total) (Count)
system.cpu.fetch.nisnDist::5                    22989      0.58%     70.97% # Number of instructions fetched each cycle (Total) (Count)
system.cpu.fetch.nisnDist::6                    16156      0.41%     71.38% # Number of instructions fetched each cycle (Total) (Count)
system.cpu.fetch.nisnDist::7                    42638      1.08%     72.46% # Number of instructions fetched each cycle (Total) (Count)
system.cpu.fetch.nisnDist::8                  1085671     27.54%    100.00% # Number of instructions fetched each cycle (Total) (Count)
system.cpu.fetch.nisnDist::overflows                0      0.00%    100.00% # Number of instructions fetched each cycle (Total) (Count)
system.cpu.fetch.nisnDist::min_value                0                       # Number of instructions fetched each cycle (Total) (Count)
system.cpu.fetch.nisnDist::max_value                8                       # Number of instructions fetched each cycle (Total) (Count)
system.cpu.fetch.nisnDist::total              3942527                       # Number of instructions fetched each cycle (Total) (Count)
system.cpu.fetch.branchRate                  0.001475                       # Number of branch fetches per cycle (Ratio)
system.cpu.fetch.rate                        2.538841                       # Number of inst fetches per cycle ((Count/Cycle))
system.cpu.icache.demandHits::cpu.inst         579036                       # number of demand (read+write) hits (Count)
system.cpu.icache.demandHits::total            579036                       # number of demand (read+write) hits (Count)
system.cpu.icache.overallHits::cpu.inst        579036                       # number of overall hits (Count)
system.cpu.icache.overallHits::total           579036                       # number of overall hits (Count)
system.cpu.icache.demandMisses::cpu.inst          151                       # number of demand (read+write) misses (Count)
system.cpu.icache.demandMisses::total             151                       # number of demand (read+write) misses (Count)
system.cpu.icache.overallMisses::cpu.inst          151                       # number of overall misses (Count)
system.cpu.icache.overallMisses::total            151                       # number of overall misses (Count)
system.cpu.icache.demandMissLatency::cpu.inst      8753000                       # number of demand (read+write) miss ticks (Tick)
system.cpu.icache.demandMissLatency::total      8753000                       # number of demand (read+write) miss ticks (Tick)
system.cpu.icache.overallMissLatency::cpu.inst      8753000                       # number of overall miss ticks (Tick)
system.cpu.icache.overallMissLatency::total      8753000                       # number of overall miss ticks (Tick)
system.cpu.icache.demandAccesses::cpu.inst       579187                       # number of demand (read+write) accesses (Count)
system.cpu.icache.demandAccesses::total        579187                       # number of demand (read+write) accesses (Count)
system.cpu.icache.overallAccesses::cpu.inst       579187                       # number of overall (read+write) accesses (Count)
system.cpu.icache.overallAccesses::total       579187                       # number of overall (read+write) accesses (Count)
system.cpu.icache.demandMissRate::cpu.inst     0.000261                       # miss rate for demand accesses (Ratio)
system.cpu.icache.demandMissRate::total      0.000261                       # miss rate for demand accesses (Ratio)
system.cpu.icache.overallMissRate::cpu.inst     0.000261                       # miss rate for overall accesses (Ratio)
system.cpu.icache.overallMissRate::total     0.000261                       # miss rate for overall accesses (Ratio)
system.cpu.icache.demandAvgMissLatency::cpu.inst 57966.887417                       # average overall miss latency in ticks ((Tick/Count))
system.cpu.icache.demandAvgMissLatency::total 57966.887417                       # average overall miss latency in ticks ((Tick/Count))
system.cpu.icache.overallAvgMissLatency::cpu.inst 57966.887417                       # average overall miss latency ((Tick/Count))
system.cpu.icache.overallAvgMissLatency::total 57966.887417                       # average overall miss latency ((Tick/Count))
system.cpu.icache.blockedCycles::no_mshrs          409                       # number of cycles access was blocked (Cycle)
system.cpu.icache.blockedCycles::no_targets            0                       # number of cycles access was blocked (Cycle)
system.cpu.icache.blockedCauses::no_mshrs            5                       # number of times access was blocked (Count)
system.cpu.icache.blockedCauses::no_targets            0                       # number of times access was blocked (Count)
system.cpu.icache.avgBlocked::no_mshrs      81.800000                       # average number of cycles each access was blocked ((Cycle/Count))
system.cpu.icache.avgBlocked::no_targets          nan                       # average number of cycles each access was blocked ((Cycle/Count))
system.cpu.icache.demandMshrHits::cpu.inst            6                       # number of demand (read+write) MSHR hits (Count)
system.cpu.icache.demandMshrHits::total             6                       # number of demand (read+write) MSHR hits (Count)
system.cpu.icache.overallMshrHits::cpu.inst            6                       # number of overall MSHR hits (Count)
system.cpu.icache.overallMshrHits::total            6                       # number of overall MSHR hits (Count)
system.cpu.icache.demandMshrMisses::cpu.inst          145                       # number of demand (read+write) MSHR misses (Count)
system.cpu.icache.demandMshrMisses::total          145                       # number of demand (read+write) MSHR misses (Count)
system.cpu.icache.overallMshrMisses::cpu.inst          145                       # number of overall MSHR misses (Count)
system.cpu.icache.overallMshrMisses::total          145                       # number of overall MSHR misses (Count)
system.cpu.icache.demandMshrMissLatency::cpu.inst      8381500                       # number of demand (read+write) MSHR miss ticks (Tick)
system.cpu.icache.demandMshrMissLatency::total      8381500                       # number of demand (read+write) MSHR miss ticks (Tick)
system.cpu.icache.overallMshrMissLatency::cpu.inst      8381500                       # number of overall MSHR miss ticks (Tick)
system.cpu.icache.overallMshrMissLatency::total      8381500                       # number of overall MSHR miss ticks (Tick)
system.cpu.icache.demandMshrMissRate::cpu.inst     0.000250                       # mshr miss ratio for demand accesses (Ratio)
[...]
system.mem_ctrls.dram.bytesPerActivate::samples        37473                       # Bytes accessed per row activation (Byte)
system.mem_ctrls.dram.bytesPerActivate::mean   104.212420                       # Bytes accessed per row activation (Byte)
system.mem_ctrls.dram.bytesPerActivate::gmean    79.993366                       # Bytes accessed per row activation (Byte)
system.mem_ctrls.dram.bytesPerActivate::stdev   139.645021                       # Bytes accessed per row activation (Byte)
system.mem_ctrls.dram.bytesPerActivate::0-127        30580     81.61%     81.61% # Bytes accessed per row activation (Byte)
system.mem_ctrls.dram.bytesPerActivate::128-255         4791     12.79%     94.39% # Bytes accessed per row activation (Byte)
system.mem_ctrls.dram.bytesPerActivate::256-383          563      1.50%     95.89% # Bytes accessed per row activation (Byte)
system.mem_ctrls.dram.bytesPerActivate::384-511          512      1.37%     97.26% # Bytes accessed per row activation (Byte)
system.mem_ctrls.dram.bytesPerActivate::512-639          200      0.53%     97.79% # Bytes accessed per row activation (Byte)
system.mem_ctrls.dram.bytesPerActivate::640-767          125      0.33%     98.13% # Bytes accessed per row activation (Byte)
system.mem_ctrls.dram.bytesPerActivate::768-895          102      0.27%     98.40% # Bytes accessed per row activation (Byte)
system.mem_ctrls.dram.bytesPerActivate::896-1023          192      0.51%     98.91% # Bytes accessed per row activation (Byte)
system.mem_ctrls.dram.bytesPerActivate::1024-1151          408      1.09%    100.00% # Bytes accessed per row activation (Byte)
system.mem_ctrls.dram.bytesPerActivate::total        37473                       # Bytes accessed per row activation (Byte)
system.mem_ctrls.dram.bytesRead               3646208                       # Total bytes read (Byte)
system.mem_ctrls.dram.bytesWritten             262400                       # Total bytes written (Byte)
system.mem_ctrls.dram.avgRdBW             1565.563013                       # Average DRAM read bandwidth in MiBytes/s ((Byte/Second))
system.mem_ctrls.dram.avgWrBW              112.666018                       # Average DRAM write bandwidth in MiBytes/s ((Byte/Second))
system.mem_ctrls.dram.peakBW                 19207.00                       # Theoretical peak bandwidth in MiByte/s ((Byte/Second))
system.mem_ctrls.dram.busUtil                    8.74                       # Data bus utilization in percentage (Ratio)
system.mem_ctrls.dram.busUtilRead                8.15                       # Data bus utilization in percentage for reads (Ratio)
system.mem_ctrls.dram.busUtilWrite               0.59                       # Data bus utilization in percentage for writes (Ratio)
system.mem_ctrls.dram.pageHitRate               38.64                       # Row buffer hit rate, read and write combined (Ratio)
system.mem_ctrls.dram.power_state.pwrStateResidencyTicks::UNDEFINED   2329007500                       # Cumulative time (in ticks) in various power states (Tick)
system.mem_ctrls.dram.rank0.actEnergy    58146012.288000                       # Energy for activate commands per rank (pJ) (Joule)
system.mem_ctrls.dram.rank0.preEnergy    77312670.556800                       # Energy for precharge commands per rank (pJ) (Joule)
system.mem_ctrls.dram.rank0.readEnergy   120965258.534400                       # Energy for read commands per rank (pJ) (Joule)
system.mem_ctrls.dram.rank0.writeEnergy  5675328.960000                       # Energy for write commands per rank (pJ) (Joule)
system.mem_ctrls.dram.rank0.refreshEnergy 414227910.532802                       # Energy for refresh commands per rank (pJ) (Joule)
system.mem_ctrls.dram.rank0.actBackEnergy 1955342961.835197                       # Energy for active background per rank (pJ) (Joule)
system.mem_ctrls.dram.rank0.preBackEnergy 17965482.931200                       # Energy for precharge background per rank (pJ) (Joule)
system.mem_ctrls.dram.rank0.actPowerDownEnergy            0                       # Energy for active power-down per rank (pJ) (Joule)
system.mem_ctrls.dram.rank0.prePowerDownEnergy            0                       # Energy for precharge power-down per rank (pJ) (Joule)
system.mem_ctrls.dram.rank0.selfRefreshEnergy            0                       # Energy for self refresh per rank (pJ) (Joule)
system.mem_ctrls.dram.rank0.totalEnergy  2649635625.638399                       # Total energy per rank (pJ) (Joule)
system.mem_ctrls.dram.rank0.averagePower  1137.667279                       # Core power per rank (mW) (Watt)
system.mem_ctrls.dram.rank0.totalIdleTime            0                       # Total Idle time Per DRAM Rank (Tick)
system.mem_ctrls.dram.rank0.pwrStateTime::IDLE     18902030                       # Time in different power states (Tick)
system.mem_ctrls.dram.rank0.pwrStateTime::REF    104650000                       # Time in different power states (Tick)
system.mem_ctrls.dram.rank0.pwrStateTime::SREF            0                       # Time in different power states (Tick)
system.mem_ctrls.dram.rank0.pwrStateTime::PRE_PDN            0                       # Time in different power states (Tick)
system.mem_ctrls.dram.rank0.pwrStateTime::ACT   2205455470                       # Time in different power states (Tick)
system.mem_ctrls.dram.rank0.pwrStateTime::ACT_PDN            0                       # Time in different power states (Tick)
system.mem_ctrls.dram.rank1.actEnergy    58729218.912000                       # Energy for activate commands per rank (pJ) (Joule)
system.mem_ctrls.dram.rank1.preEnergy    78063158.241600                       # Energy for precharge commands per rank (pJ) (Joule)
system.mem_ctrls.dram.rank1.readEnergy   118672815.878400                       # Energy for read commands per rank (pJ) (Joule)
system.mem_ctrls.dram.rank1.writeEnergy  9734504.640000                       # Energy for write commands per rank (pJ) (Joule)
system.mem_ctrls.dram.rank1.refreshEnergy 414227910.532802                       # Energy for refresh commands per rank (pJ) (Joule)
system.mem_ctrls.dram.rank1.actBackEnergy 1954673461.742397                       # Energy for active background per rank (pJ) (Joule)
system.mem_ctrls.dram.rank1.preBackEnergy 18479901.081600                       # Energy for precharge background per rank (pJ) (Joule)
system.mem_ctrls.dram.rank1.actPowerDownEnergy            0                       # Energy for active power-down per rank (pJ) (Joule)
system.mem_ctrls.dram.rank1.prePowerDownEnergy            0                       # Energy for precharge power-down per rank (pJ) (Joule)
system.mem_ctrls.dram.rank1.selfRefreshEnergy            0                       # Energy for self refresh per rank (pJ) (Joule)
system.mem_ctrls.dram.rank1.totalEnergy  2652580971.028801                       # Total energy per rank (pJ) (Joule)
system.mem_ctrls.dram.rank1.averagePower  1138.931915                       # Core power per rank (mW) (Watt)
system.mem_ctrls.dram.rank1.totalIdleTime            0                       # Total Idle time Per DRAM Rank (Tick)
system.mem_ctrls.dram.rank1.pwrStateTime::IDLE     19645354                       # Time in different power states (Tick)
system.mem_ctrls.dram.rank1.pwrStateTime::REF    104650000                       # Time in different power states (Tick)
system.mem_ctrls.dram.rank1.pwrStateTime::SREF            0                       # Time in different power states (Tick)
system.mem_ctrls.dram.rank1.pwrStateTime::PRE_PDN            0                       # Time in different power states (Tick)
system.mem_ctrls.dram.rank1.pwrStateTime::ACT   2204712146                       # Time in different power states (Tick)
system.mem_ctrls.dram.rank1.pwrStateTime::ACT_PDN            0                       # Time in different power states (Tick)
system.mem_ctrls.power_state.pwrStateResidencyTicks::UNDEFINED   2329007500                       # Cumulative time (in ticks) in various power states (Tick)
system.membus.transDist::ReadResp               39508                       # Transaction distribution (Count)
system.membus.transDist::WritebackDirty          4151                       # Transaction distribution (Count)
system.membus.transDist::CleanEvict             40174                       # Transaction distribution (Count)
system.membus.transDist::ReadExReq              17463                       # Transaction distribution (Count)
system.membus.transDist::ReadExResp             17463                       # Transaction distribution (Count)
system.membus.transDist::ReadCleanReq           39509                       # Transaction distribution (Count)
system.membus.pktCount_system.l2.mem_side_port::system.mem_ctrls.port       158268                       # Packet count per connected requestor and responder (Count)
system.membus.pktCount_system.l2.mem_side_port::total       158268                       # Packet count per connected requestor and responder (Count)
system.membus.pktCount::total                  158268                       # Packet count per connected requestor and responder (Count)
system.membus.pktSize_system.l2.mem_side_port::system.mem_ctrls.port      3911808                       # Cumulative packet size per connected requestor and responder (Byte)
system.membus.pktSize_system.l2.mem_side_port::total      3911808                       # Cumulative packet size per connected requestor and responder (Byte)
system.membus.pktSize::total                  3911808                       # Cumulative packet size per connected requestor and responder (Byte)
system.membus.snoops                                0                       # Total snoops (Count)
system.membus.snoopTraffic                          0                       # Total snoop traffic (Byte)
system.membus.snoopFanout::samples              56972                       # Request fanout histogram (Count)
system.membus.snoopFanout::mean                     0                       # Request fanout histogram (Count)
system.membus.snoopFanout::stdev                    0                       # Request fanout histogram (Count)
system.membus.snoopFanout::underflows               0      0.00%      0.00% # Request fanout histogram (Count)
system.membus.snoopFanout::0                    56972    100.00%    100.00% # Request fanout histogram (Count)
system.membus.snoopFanout::1                        0      0.00%    100.00% # Request fanout histogram (Count)
system.membus.snoopFanout::2                        0      0.00%    100.00% # Request fanout histogram (Count)
system.membus.snoopFanout::overflows                0      0.00%    100.00% # Request fanout histogram (Count)
system.membus.snoopFanout::min_value                0                       # Request fanout histogram (Count)
system.membus.snoopFanout::max_value                0                       # Request fanout histogram (Count)
system.membus.snoopFanout::total                56972                       # Request fanout histogram (Count)
system.membus.badaddr_responder.power_state.pwrStateResidencyTicks::UNDEFINED   2329007500                       # Cumulative time (in ticks) in various power states (Tick)
system.membus.power_state.pwrStateResidencyTicks::UNDEFINED   2329007500                       # Cumulative time (in ticks) in various power states (Tick)
system.membus.reqLayer4.occupancy           142233500                       # Layer occupancy (ticks) (Tick)
system.membus.reqLayer4.utilization               0.1                       # Layer utilization (Ratio)
system.membus.respLayer2.occupancy          293360222                       # Layer occupancy (ticks) (Tick)
system.membus.respLayer2.utilization              0.1                       # Layer utilization (Ratio)
system.membus.snoop_filter.totRequests         101297                       # Total number of requests made to the snoop filter. (Count)
system.membus.snoop_filter.hitSingleRequests        44741                       # Number of requests hitting in the snoop filter with a single holder of the requested data. (Count)
system.membus.snoop_filter.hitMultiRequests            0                       # Number of requests hitting in the snoop filter with multiple (>1) holders of the requested data. (Count)
system.membus.snoop_filter.totSnoops                0                       # Total number of snoops made to the snoop filter. (Count)
system.membus.snoop_filter.hitSingleSnoops            0                       # Number of snoops hitting in the snoop filter with a single holder of the requested data. (Count)
system.membus.snoop_filter.hitMultiSnoops            0                       # Number of snoops hitting in the snoop filter with multiple (>1) holders of the requested data. (Count)
system.mmcs.power_state.pwrStateResidencyTicks::UNDEFINED   2329007500                       # Cumulative time (in ticks) in various power states (Tick)
system.tol2bus.transDist::ReadResp              39511                       # Transaction distribution (Count)
system.tol2bus.transDist::WritebackDirty        20511                       # Transaction distribution (Count)
system.tol2bus.transDist::CleanEvict            40592                       # Transaction distribution (Count)
system.tol2bus.transDist::ReadExReq             17463                       # Transaction distribution (Count)
system.tol2bus.transDist::ReadExResp            17463                       # Transaction distribution (Count)
system.tol2bus.transDist::ReadCleanReq             22                       # Transaction distribution (Count)
system.tol2bus.transDist::ReadSharedReq         39491                       # Transaction distribution (Count)
system.tol2bus.pktCount_system.cpu.icache.mem_side_port::system.l2.cpu_side_port           44                       # Packet count per connected requestor and responder (Count)
system.tol2bus.pktCount_system.cpu.dcache.mem_side_port::system.l2.cpu_side_port       165134                       # Packet count per connected requestor and responder (Count)
system.tol2bus.pktCount_system.cpu.itb_walker_cache.mem_side_port::system.l2.cpu_side_port            2                       # Packet count per connected requestor and responder (Count)
system.tol2bus.pktCount_system.cpu.dtb_walker_cache.mem_side_port::system.l2.cpu_side_port         5721                       # Packet count per connected requestor and responder (Count)
system.tol2bus.pktCount::total                 170901                       # Packet count per connected requestor and responder (Count)
system.tol2bus.pktSize_system.cpu.icache.mem_side_port::system.l2.cpu_side_port         1408                       # Cumulative packet size per connected requestor and responder (Byte)
system.tol2bus.pktSize_system.cpu.dcache.mem_side_port::system.l2.cpu_side_port      4569792                       # Cumulative packet size per connected requestor and responder (Byte)
system.tol2bus.pktSize_system.cpu.itb_walker_cache.mem_side_port::system.l2.cpu_side_port           64                       # Cumulative packet size per connected requestor and responder (Byte)
system.tol2bus.pktSize_system.cpu.dtb_walker_cache.mem_side_port::system.l2.cpu_side_port       122048                       # Cumulative packet size per connected requestor and responder (Byte)
system.tol2bus.pktSize::total                 4693312                       # Cumulative packet size per connected requestor and responder (Byte)
system.tol2bus.snoops                            4152                       # Total snoops (Count)
system.tol2bus.snoopTraffic                    265728                       # Total snoop traffic (Byte)
system.tol2bus.snoopFanout::samples             61128                       # Request fanout histogram (Count)
system.tol2bus.snoopFanout::mean             0.006805                       # Request fanout histogram (Count)
system.tol2bus.snoopFanout::stdev            0.082214                       # Request fanout histogram (Count)
system.tol2bus.snoopFanout::underflows              0      0.00%      0.00% # Request fanout histogram (Count)
system.tol2bus.snoopFanout::0                   60712     99.32%     99.32% # Request fanout histogram (Count)
system.tol2bus.snoopFanout::1                     416      0.68%    100.00% # Request fanout histogram (Count)
system.tol2bus.snoopFanout::2                       0      0.00%    100.00% # Request fanout histogram (Count)
system.tol2bus.snoopFanout::3                       0      0.00%    100.00% # Request fanout histogram (Count)
system.tol2bus.snoopFanout::4                       0      0.00%    100.00% # Request fanout histogram (Count)
system.tol2bus.snoopFanout::overflows               0      0.00%    100.00% # Request fanout histogram (Count)
system.tol2bus.snoopFanout::min_value               0                       # Request fanout histogram (Count)
system.tol2bus.snoopFanout::max_value               1                       # Request fanout histogram (Count)
system.tol2bus.snoopFanout::total               61128                       # Request fanout histogram (Count)
system.tol2bus.power_state.pwrStateResidencyTicks::UNDEFINED   2329007500                       # Cumulative time (in ticks) in various power states (Tick)
system.tol2bus.reqLayer0.occupancy           65143000                       # Layer occupancy (ticks) (Tick)
system.tol2bus.reqLayer0.utilization              0.0                       # Layer utilization (Ratio)
system.tol2bus.respLayer0.occupancy             22000                       # Layer occupancy (ticks) (Tick)
system.tol2bus.respLayer0.utilization             0.0                       # Layer utilization (Ratio)
system.tol2bus.respLayer1.occupancy          55044000                       # Layer occupancy (ticks) (Tick)
system.tol2bus.respLayer1.utilization             0.0                       # Layer utilization (Ratio)
system.tol2bus.respLayer2.occupancy              1000                       # Layer occupancy (ticks) (Tick)
system.tol2bus.respLayer2.utilization             0.0                       # Layer utilization (Ratio)
system.tol2bus.respLayer3.occupancy           1907000                       # Layer occupancy (ticks) (Tick)
system.tol2bus.respLayer3.utilization             0.0                       # Layer utilization (Ratio)
system.tol2bus.snoop_filter.totRequests        113927                       # Total number of requests made to the snoop filter. (Count)
system.tol2bus.snoop_filter.hitSingleRequests        56949                       # Number of requests hitting in the snoop filter with a single holder of the requested data. (Count)
system.tol2bus.snoop_filter.hitMultiRequests          418                       # Number of requests hitting in the snoop filter with multiple (>1) holders of the requested data. (Count)
system.tol2bus.snoop_filter.totSnoops               0                       # Total number of snoops made to the snoop filter. (Count)
system.tol2bus.snoop_filter.hitSingleSnoops            0                       # Number of snoops hitting in the snoop filter with a single holder of the requested data. (Count)
system.tol2bus.snoop_filter.hitMultiSnoops            0                       # Number of snoops hitting in the snoop filter with multiple (>1) holders of the requested data. (Count)
system.uartlite.power_state.pwrStateResidencyTicks::UNDEFINED   2329007500                       # Cumulative time (in ticks) in various power states (Tick)
system.voltage_domain.voltage                       1                       # Voltage in Volts (Volt)
system.workload.inst.arm                            0                       # number of arm instructions executed (Count)
system.workload.inst.quiesce                        0                       # number of quiesce instructions executed (Count)

---------- End Simulation Statistics   ----------
