
---------- Begin Simulation Statistics ----------
simSeconds                                   0.017350                       # Number of seconds simulated (Second)
simTicks                                  17350485500                       # Number of ticks simulated (Tick)
finalTick                                 17350485500                       # Number of ticks from beginning of simulation (restored from checkpoints and never reset) (Tick)
simFreq                                  1000000000000                       # The number of ticks per simulated second ((Tick/Second))
hostSeconds                                   1579.98                       # Real time elapsed on the host (Second)
hostTickRate                                 10981456                       # The number of ticks simulated per host second (ticks/s) ((Tick/Second))
hostMemory                                   25592392                       # Number of bytes of host memory used (Byte)
simInsts                                     50000000                       # Number of instructions simulated (Count)
simOps                                       50000011                       # Number of ops (including micro ops) simulated (Count)
hostInstRate                                    31646                       # Simulator instruction rate (inst/s) ((Count/Second))
hostOpRate                                      31646                       # Simulator op (including micro ops) rate (op/s) ((Count/Second))
system.bridge.power_state.pwrStateResidencyTicks::UNDEFINED  17350485500                       # Cumulative time (in ticks) in various power states (Tick)
system.clk_domain.clock                          1000                       # Clock period in ticks (Tick)
system.cpu.numCycles                         34700980                       # Number of cpu cycles simulated (Cycle)
system.cpu.numWorkItemsStarted                      0                       # Number of work items this cpu started (Count)
system.cpu.numWorkItemsCompleted                    0                       # Number of work items this cpu completed (Count)
system.cpu.instsAdded                        63164743                       # Number of instructions added to the IQ (excludes non-spec) (Count)
system.cpu.nonSpecInstsAdded                      891                       # Number of non-speculative instructions added to the IQ (Count)
system.cpu.instsIssued                       58740001                       # Number of instructions issued (Count)
system.cpu.squashedInstsIssued                 198802                       # Number of squashed instructions issued (Count)
system.cpu.squashedInstsExamined             13165596                       # Number of squashed instructions iterated over during squash; mainly for profiling (Count)
system.cpu.squashedOperandsExamined           8095445                       # Number of squashed operands that are examined and possibly removed from graph (Count)
system.cpu.squashedNonSpecRemoved                 194                       # Number of squashed non-spec instructions that were removed (Count)
system.cpu.numIssuedDist::samples            34599994                       # Number of insts issued each cycle (Count)
system.cpu.numIssuedDist::mean               1.697688                       # Number of insts issued each cycle (Count)
system.cpu.numIssuedDist::stdev              2.312531                       # Number of insts issued each cycle (Count)
system.cpu.numIssuedDist::underflows                0      0.00%      0.00% # Number of insts issued each cycle (Count)
system.cpu.numIssuedDist::0                  19857339     57.39%     57.39% # Number of insts issued each cycle (Count)
system.cpu.numIssuedDist::1                   1716523      4.96%     62.35% # Number of insts issued each cycle (Count)
system.cpu.numIssuedDist::2                   1965691      5.68%     68.03% # Number of insts issued each cycle (Count)
system.cpu.numIssuedDist::3                   1807148      5.22%     73.26% # Number of insts issued each cycle (Count)
system.cpu.numIssuedDist::4                   3507332     10.14%     83.39% # Number of insts issued each cycle (Count)
system.cpu.numIssuedDist::5                   2799304      8.09%     91.48% # Number of insts issued each cycle (Count)
system.cpu.numIssuedDist::6                   1576632      4.56%     96.04% # Number of insts issued each cycle (Count)
system.cpu.numIssuedDist::7                    775188      2.24%     98.28% # Number of insts issued each cycle (Count)
system.cpu.numIssuedDist::8                    594837      1.72%    100.00% # Number of insts issued each cycle (Count)
system.cpu.numIssuedDist::overflows                 0      0.00%    100.00% # Number of insts issued each cycle (Count)
system.cpu.numIssuedDist::min_value                 0                       # Number of insts issued each cycle (Count)
system.cpu.numIssuedDist::max_value                 8                       # Number of insts issued each cycle (Count)
system.cpu.numIssuedDist::total              34599994                       # Number of insts issued each cycle (Count)
system.cpu.statFuBusy::No_OpClass                   0      0.00%      0.00% # attempts to use FU when none available (Count)
system.cpu.statFuBusy::IntAlu                  395908     36.01%     36.01% # attempts to use FU when none available (Count)
system.cpu.statFuBusy::IntMult                 344620     31.34%     67.35% # attempts to use FU when none available (Count)
system.cpu.statFuBusy::IntDiv                   37921      3.45%     70.80% # attempts to use FU when none available (Count)
system.cpu.statFuBusy::FloatAdd                   285      0.03%     70.82% # attempts to use FU when none available (Count)
system.cpu.statFuBusy::FloatCmp                   198      0.02%     70.84% # attempts to use FU when none available (Count)
system.cpu.statFuBusy::FloatCvt                   139      0.01%     70.85% # attempts to use FU when none available (Count)
system.cpu.statFuBusy::FloatMult                  129      0.01%     70.86% # attempts to use FU when none available (Count)
system.cpu.statFuBusy::FloatMultAcc                 9      0.00%     70.86% # attempts to use FU when none available (Count)
system.cpu.statFuBusy::FloatDiv                  2223      0.20%     71.07% # attempts to use FU when none available (Count)
system.cpu.statFuBusy::FloatMisc                 1320      0.12%     71.19% # attempts to use FU when none available (Count)
system.cpu.statFuBusy::FloatSqrt                    0      0.00%     71.19% # attempts to use FU when none available (Count)
system.cpu.statFuBusy::SimdAdd                      0      0.00%     71.19% # attempts to use FU when none available (Count)
system.cpu.statFuBusy::SimdAddAcc                   0      0.00%     71.19% # attempts to use FU when none available (Count)
system.cpu.statFuBusy::SimdAlu                      0      0.00%     71.19% # attempts to use FU when none available (Count)
system.cpu.statFuBusy::SimdCmp                      0      0.00%     71.19% # attempts to use FU when none available (Count)
system.cpu.statFuBusy::SimdCvt                      0      0.00%     71.19% # attempts to use FU when none available (Count)
system.cpu.statFuBusy::SimdMisc                     0      0.00%     71.19% # attempts to use FU when none available (Count)
system.cpu.statFuBusy::SimdMult                     0      0.00%     71.19% # attempts to use FU when none available (Count)
system.cpu.statFuBusy::SimdMultAcc                  0      0.00%     71.19% # attempts to use FU when none available (Count)
system.cpu.statFuBusy::SimdShift                    0      0.00%     71.19% # attempts to use FU when none available (Count)
system.cpu.statFuBusy::SimdShiftAcc                 0      0.00%     71.19% # attempts to use FU when none available (Count)
system.cpu.statFuBusy::SimdDiv                      0      0.00%     71.19% # attempts to use FU when none available (Count)
system.cpu.statFuBusy::SimdSqrt                     0      0.00%     71.19% # attempts to use FU when none available (Count)
system.cpu.statFuBusy::SimdFloatAdd                 0      0.00%     71.19% # attempts to use FU when none available (Count)
system.cpu.statFuBusy::SimdFloatAlu                 0      0.00%     71.19% # attempts to use FU when none available (Count)
system.cpu.statFuBusy::SimdFloatCmp                 0      0.00%     71.19% # attempts to use FU when none available (Count)
system.cpu.statFuBusy::SimdFloatCvt                 0      0.00%     71.19% # attempts to use FU when none available (Count)
system.cpu.statFuBusy::SimdFloatDiv                 0      0.00%     71.19% # attempts to use FU when none available (Count)
system.cpu.statFuBusy::SimdFloatMisc                0      0.00%     71.19% # attempts to use FU when none available (Count)
system.cpu.statFuBusy::SimdFloatMult                0      0.00%     71.19% # attempts to use FU when none available (Count)
system.cpu.statFuBusy::SimdFloatMultAcc             0      0.00%     71.19% # attempts to use FU when none available (Count)
system.cpu.statFuBusy::SimdFloatSqrt                0      0.00%     71.19% # attempts to use FU when none available (Count)
system.cpu.statFuBusy::SimdReduceAdd                0      0.00%     71.19% # attempts to use FU when none available (Count)
system.cpu.statFuBusy::SimdReduceAlu                0      0.00%     71.19% # attempts to use FU when none available (Count)
system.cpu.statFuBusy::SimdReduceCmp                0      0.00%     71.19% # attempts to use FU when none available (Count)
system.cpu.statFuBusy::SimdFloatReduceAdd            0      0.00%     71.19% # attempts to use FU when none available (Count)
system.cpu.statFuBusy::SimdFloatReduceCmp            0      0.00%     71.19% # attempts to use FU when none available (Count)
system.cpu.statFuBusy::SimdAes                      0      0.00%     71.19% # attempts to use FU when none available (Count)
system.cpu.statFuBusy::SimdAesMix                   0      0.00%     71.19% # attempts to use FU when none available (Count)
system.cpu.statFuBusy::SimdSha1Hash                 0      0.00%     71.19% # attempts to use FU when none available (Count)
system.cpu.statFuBusy::SimdSha1Hash2                0      0.00%     71.19% # attempts to use FU when none available (Count)
system.cpu.statFuBusy::SimdSha256Hash               0      0.00%     71.19% # attempts to use FU when none available (Count)
system.cpu.statFuBusy::SimdSha256Hash2              0      0.00%     71.19% # attempts to use FU when none available (Count)
system.cpu.statFuBusy::SimdShaSigma2                0      0.00%     71.19% # attempts to use FU when none available (Count)
system.cpu.statFuBusy::SimdShaSigma3                0      0.00%     71.19% # attempts to use FU when none available (Count)
system.cpu.statFuBusy::SimdPredAlu                  0      0.00%     71.19% # attempts to use FU when none available (Count)
system.cpu.statFuBusy::MemRead                 178197     16.21%     87.39% # attempts to use FU when none available (Count)
system.cpu.statFuBusy::MemWrite                103369      9.40%     96.79% # attempts to use FU when none available (Count)
system.cpu.statFuBusy::FloatMemRead             23350      2.12%     98.92% # attempts to use FU when none available (Count)
system.cpu.statFuBusy::FloatMemWrite            11913      1.08%    100.00% # attempts to use FU when none available (Count)
system.cpu.statFuBusy::IprAccess                    0      0.00%    100.00% # attempts to use FU when none available (Count)
system.cpu.statFuBusy::InstPrefetch                 0      0.00%    100.00% # attempts to use FU when none available (Count)
system.cpu.statIssuedInstType_0::No_OpClass          676      0.00%      0.00% # Number of instructions issued per FU type, per thread (Count)
system.cpu.statIssuedInstType_0::IntAlu      39687600     67.56%     67.57% # Number of instructions issued per FU type, per thread (Count)
system.cpu.statIssuedInstType_0::IntMult       780365      1.33%     68.89% # Number of instructions issued per FU type, per thread (Count)
system.cpu.statIssuedInstType_0::IntDiv         87630      0.15%     69.04% # Number of instructions issued per FU type, per thread (Count)
system.cpu.statIssuedInstType_0::FloatAdd        30588      0.05%     69.10% # Number of instructions issued per FU type, per thread (Count)
system.cpu.statIssuedInstType_0::FloatCmp       131353      0.22%     69.32% # Number of instructions issued per FU type, per thread (Count)
system.cpu.statIssuedInstType_0::FloatCvt       148408      0.25%     69.57% # Number of instructions issued per FU type, per thread (Count)
system.cpu.statIssuedInstType_0::FloatMult        34884      0.06%     69.63% # Number of instructions issued per FU type, per thread (Count)
system.cpu.statIssuedInstType_0::FloatMultAcc         5855      0.01%     69.64% # Number of instructions issued per FU type, per thread (Count)
system.cpu.statIssuedInstType_0::FloatDiv        12396      0.02%     69.66% # Number of instructions issued per FU type, per thread (Count)
system.cpu.statIssuedInstType_0::FloatMisc        33147      0.06%     69.72% # Number of instructions issued per FU type, per thread (Count)
system.cpu.statIssuedInstType_0::FloatSqrt            0      0.00%     69.72% # Number of instructions issued per FU type, per thread (Count)
system.cpu.statIssuedInstType_0::SimdAdd            0      0.00%     69.72% # Number of instructions issued per FU type, per thread (Count)
system.cpu.statIssuedInstType_0::SimdAddAcc            0      0.00%     69.72% # Number of instructions issued per FU type, per thread (Count)
system.cpu.statIssuedInstType_0::SimdAlu            0      0.00%     69.72% # Number of instructions issued per FU type, per thread (Count)
system.cpu.statIssuedInstType_0::SimdCmp            0      0.00%     69.72% # Number of instructions issued per FU type, per thread (Count)
system.cpu.statIssuedInstType_0::SimdCvt            0      0.00%     69.72% # Number of instructions issued per FU type, per thread (Count)
system.cpu.statIssuedInstType_0::SimdMisc            0      0.00%     69.72% # Number of instructions issued per FU type, per thread (Count)
system.cpu.statIssuedInstType_0::SimdMult            0      0.00%     69.72% # Number of instructions issued per FU type, per thread (Count)
system.cpu.statIssuedInstType_0::SimdMultAcc            0      0.00%     69.72% # Number of instructions issued per FU type, per thread (Count)
system.cpu.statIssuedInstType_0::SimdShift            0      0.00%     69.72% # Number of instructions issued per FU type, per thread (Count)
system.cpu.statIssuedInstType_0::SimdShiftAcc            0      0.00%     69.72% # Number of instructions issued per FU type, per thread (Count)
system.cpu.statIssuedInstType_0::SimdDiv            0      0.00%     69.72% # Number of instructions issued per FU type, per thread (Count)
system.cpu.statIssuedInstType_0::SimdSqrt            0      0.00%     69.72% # Number of instructions issued per FU type, per thread (Count)
system.cpu.statIssuedInstType_0::SimdFloatAdd            0      0.00%     69.72% # Number of instructions issued per FU type, per thread (Count)
system.cpu.statIssuedInstType_0::SimdFloatAlu            0      0.00%     69.72% # Number of instructions issued per FU type, per thread (Count)
system.cpu.statIssuedInstType_0::SimdFloatCmp            0      0.00%     69.72% # Number of instructions issued per FU type, per thread (Count)
system.cpu.statIssuedInstType_0::SimdFloatCvt            0      0.00%     69.72% # Number of instructions issued per FU type, per thread (Count)
system.cpu.statIssuedInstType_0::SimdFloatDiv            0      0.00%     69.72% # Number of instructions issued per FU type, per thread (Count)
system.cpu.statIssuedInstType_0::SimdFloatMisc            0      0.00%     69.72% # Number of instructions issued per FU type, per thread (Count)
system.cpu.statIssuedInstType_0::SimdFloatMult            0      0.00%     69.72% # Number of instructions issued per FU type, per thread (Count)
system.cpu.statIssuedInstType_0::SimdFloatMultAcc            0      0.00%     69.72% # Number of instructions issued per FU type, per thread (Count)
system.cpu.statIssuedInstType_0::SimdFloatSqrt            0      0.00%     69.72% # Number of instructions issued per FU type, per thread (Count)
system.cpu.statIssuedInstType_0::SimdReduceAdd            0      0.00%     69.72% # Number of instructions issued per FU type, per thread (Count)
system.cpu.statIssuedInstType_0::SimdReduceAlu            0      0.00%     69.72% # Number of instructions issued per FU type, per thread (Count)
system.cpu.statIssuedInstType_0::SimdReduceCmp            0      0.00%     69.72% # Number of instructions issued per FU type, per thread (Count)
system.cpu.statIssuedInstType_0::SimdFloatReduceAdd            0      0.00%     69.72% # Number of instructions issued per FU type, per thread (Count)
system.cpu.statIssuedInstType_0::SimdFloatReduceCmp            0      0.00%     69.72% # Number of instructions issued per FU type, per thread (Count)
system.cpu.statIssuedInstType_0::SimdAes            0      0.00%     69.72% # Number of instructions issued per FU type, per thread (Count)
system.cpu.statIssuedInstType_0::SimdAesMix            0      0.00%     69.72% # Number of instructions issued per FU type, per thread (Count)
system.cpu.statIssuedInstType_0::SimdSha1Hash            0      0.00%     69.72% # Number of instructions issued per FU type, per thread (Count)
system.cpu.statIssuedInstType_0::SimdSha1Hash2            0      0.00%     69.72% # Number of instructions issued per FU type, per thread (Count)
system.cpu.statIssuedInstType_0::SimdSha256Hash            0      0.00%     69.72% # Number of instructions issued per FU type, per thread (Count)
system.cpu.statIssuedInstType_0::SimdSha256Hash2            0      0.00%     69.72% # Number of instructions issued per FU type, per thread (Count)
system.cpu.statIssuedInstType_0::SimdShaSigma2            0      0.00%     69.72% # Number of instructions issued per FU type, per thread (Count)
system.cpu.statIssuedInstType_0::SimdShaSigma3            0      0.00%     69.72% # Number of instructions issued per FU type, per thread (Count)
system.cpu.statIssuedInstType_0::SimdPredAlu            0      0.00%     69.72% # Number of instructions issued per FU type, per thread (Count)
system.cpu.statIssuedInstType_0::MemRead     14179054     24.14%     93.86% # Number of instructions issued per FU type, per thread (Count)
system.cpu.statIssuedInstType_0::MemWrite      3151013      5.36%     99.22% # Number of instructions issued per FU type, per thread (Count)
system.cpu.statIssuedInstType_0::FloatMemRead       313272      0.53%     99.76% # Number of instructions issued per FU type, per thread (Count)
system.cpu.statIssuedInstType_0::FloatMemWrite       143760      0.24%    100.00% # Number of instructions issued per FU type, per thread (Count)
system.cpu.statIssuedInstType_0::IprAccess            0      0.00%    100.00% # Number of instructions issued per FU type, per thread (Count)
system.cpu.statIssuedInstType_0::InstPrefetch            0      0.00%    100.00% # Number of instructions issued per FU type, per thread (Count)
system.cpu.statIssuedInstType_0::total       58740001                       # Number of instructions issued per FU type, per thread (Count)
system.cpu.issueRate                         1.692748                       # Inst issue rate ((Count/Cycle))
system.cpu.fuBusy                             1099581                       # FU busy when requested (Count)
system.cpu.fuBusyRate                        0.018719                       # FU busy rate (busy events/executed inst) ((Count/Count))
system.cpu.intInstQueueReads                151623690                       # Number of integer instruction queue reads (Count)
system.cpu.intInstQueueWrites                74850577                       # Number of integer instruction queue writes (Count)
system.cpu.intInstQueueWakeupAccesses        56190462                       # Number of integer instruction queue wakeup accesses (Count)
system.cpu.fpInstQueueReads                   1754684                       # Number of floating instruction queue reads (Count)
system.cpu.fpInstQueueWrites                  1482557                       # Number of floating instruction queue writes (Count)
system.cpu.fpInstQueueWakeupAccesses           785074                       # Number of floating instruction queue wakeup accesses (Count)
system.cpu.vecInstQueueReads                        0                       # Number of vector instruction queue reads (Count)
system.cpu.vecInstQueueWrites                       0                       # Number of vector instruction queue writes (Count)
system.cpu.vecInstQueueWakeupAccesses               0                       # Number of vector instruction queue wakeup accesses (Count)
system.cpu.intAluAccesses                    58945677                       # Number of integer alu accesses (Count)
system.cpu.fpAluAccesses                       893229                       # Number of floating point alu accesses (Count)
system.cpu.vecAluAccesses                           0                       # Number of vector alu accesses (Count)
system.cpu.numInsts                          57542152                       # Number of executed instructions (Count)
system.cpu.numLoadInsts                      14077347                       # Number of load instructions executed (Count)
system.cpu.numSquashedInsts                   1132344                       # Number of squashed instructions skipped in execute (Count)
system.cpu.numSwp                                   0                       # Number of swp insts executed (Count)
system.cpu.numNop                                   0                       # Number of nop insts executed (Count)
system.cpu.numRefs                           17256053                       # Number of memory reference insts executed (Count)
system.cpu.numBranches                       12209827                       # Number of branches executed (Count)
system.cpu.numStoreInsts                      3178706                       # Number of stores executed (Count)
system.cpu.numRate                           1.658228                       # Inst execution rate ((Count/Cycle))
system.cpu.timesIdled                            1193                       # Number of times that the entire CPU went into an idle state and unscheduled itself (Count)
system.cpu.idleCycles                          100986                       # Total number of cycles that the CPU has spent unscheduled due to idling (Cycle)
system.cpu.committedInsts                    50000000                       # Number of Instructions Simulated (Count)
system.cpu.committedOps                      50000011                       # Number of Ops (including micro ops) Simulated (Count)
system.cpu.cpi                               0.694020                       # CPI: Cycles Per Instruction ((Cycle/Count))
system.cpu.totalCpi                          0.694020                       # CPI: Total CPI of All Threads ((Cycle/Count))
system.cpu.ipc                               1.440881                       # IPC: Instructions Per Cycle ((Count/Cycle))
system.cpu.totalIpc                          1.440881                       # IPC: Total IPC of All Threads ((Count/Cycle))
system.cpu.intRegfileReads                   72452459                       # Number of integer regfile reads (Count)
system.cpu.intRegfileWrites                  41570980                       # Number of integer regfile writes (Count)
system.cpu.fpRegfileReads                      677961                       # Number of floating regfile reads (Count)
system.cpu.fpRegfileWrites                     517241                       # Number of floating regfile writes (Count)
system.cpu.miscRegfileReads                 443629498                       # number of misc regfile reads (Count)
system.cpu.miscRegfileWrites                   512908                       # number of misc regfile writes (Count)
system.cpu.lastCommitTick                 17350485500                       # The last tick to commit an instruction (Count)
system.cpu.MemDepUnit__0.insertedLoads       15268873                       # Number of loads inserted to the mem dependence unit. (Count)
system.cpu.MemDepUnit__0.insertedStores       3478616                       # Number of stores inserted to the mem dependence unit. (Count)
system.cpu.MemDepUnit__0.conflictingLoads       268794                       # Number of conflicting loads. (Count)
system.cpu.MemDepUnit__0.conflictingStores       171132                       # Number of conflicting stores. (Count)
system.cpu.MemDepUnit__1.insertedLoads              0                       # Number of loads inserted to the mem dependence unit. (Count)
system.cpu.MemDepUnit__1.insertedStores             0                       # Number of stores inserted to the mem dependence unit. (Count)
system.cpu.MemDepUnit__1.conflictingLoads            0                       # Number of conflicting loads. (Count)
system.cpu.MemDepUnit__1.conflictingStores            0                       # Number of conflicting stores. (Count)
system.cpu.MemDepUnit__2.insertedLoads              0                       # Number of loads inserted to the mem dependence unit. (Count)
system.cpu.MemDepUnit__2.insertedStores             0                       # Number of stores inserted to the mem dependence unit. (Count)
system.cpu.MemDepUnit__2.conflictingLoads            0                       # Number of conflicting loads. (Count)
system.cpu.MemDepUnit__2.conflictingStores            0                       # Number of conflicting stores. (Count)
system.cpu.MemDepUnit__3.insertedLoads              0                       # Number of loads inserted to the mem dependence unit. (Count)
system.cpu.MemDepUnit__3.insertedStores             0                       # Number of stores inserted to the mem dependence unit. (Count)
system.cpu.MemDepUnit__3.conflictingLoads            0                       # Number of conflicting loads. (Count)
system.cpu.MemDepUnit__3.conflictingStores            0                       # Number of conflicting stores. (Count)
system.cpu.branchPred.lookups                       0                       # Number of BP lookups (Count)
system.cpu.branchPred.condPredicted                 0                       # Number of conditional branches predicted (Count)
system.cpu.branchPred.condIncorrect            449964                       # Number of conditional branches incorrect (Count)
system.cpu.branchPred.BTBLookups                    0                       # Number of BTB lookups (Count)
system.cpu.branchPred.BTBHits                       0                       # Number of BTB hits (Count)
system.cpu.branchPred.BTBHitRatio                 nan                       # BTB Hit Ratio (Ratio)
system.cpu.branchPred.RASUsed                       0                       # Number of times the RAS was used to get a target. (Count)
system.cpu.branchPred.RASIncorrect              14449                       # Number of incorrect RAS predictions. (Count)
system.cpu.branchPred.indirectLookups               0                       # Number of indirect predictor lookups. (Count)
system.cpu.branchPred.indirectHits                  0                       # Number of indirect target hits. (Count)
system.cpu.branchPred.indirectMisses                0                       # Number of indirect misses. (Count)
system.cpu.branchPred.indirectMispredicted        22654                       # Number of mispredicted indirect branches. (Count)
system.cpu.branchPred.stream_tage.coldMisses            0                       # ittage the provider component lookup hit (Count)
system.cpu.branchPred.stream_tage.capacityMisses            0                       # ittage the alternate prediction lookup hit (Count)
system.cpu.branchPred.stream_tage.compulsoryMisses            0                       # ittage the provider component pred hit (Count)
system.cpu.branchPred.stream_tage.providerTableDist::samples     24765069                       # the distribution of provider component (Count)
system.cpu.branchPred.stream_tage.providerTableDist::mean     2.520709                       # the distribution of provider component (Count)
system.cpu.branchPred.stream_tage.providerTableDist::stdev     3.287001                       # the distribution of provider component (Count)
system.cpu.branchPred.stream_tage.providerTableDist::underflows            0      0.00%      0.00% # the distribution of provider component (Count)
system.cpu.branchPred.stream_tage.providerTableDist::0     10528135     42.51%     42.51% # the distribution of provider component (Count)
system.cpu.branchPred.stream_tage.providerTableDist::1      3019325     12.19%     54.70% # the distribution of provider component (Count)
system.cpu.branchPred.stream_tage.providerTableDist::2      2465332      9.95%     64.66% # the distribution of provider component (Count)
system.cpu.branchPred.stream_tage.providerTableDist::3      2373515      9.58%     74.24% # the distribution of provider component (Count)
system.cpu.branchPred.stream_tage.providerTableDist::4       946258      3.82%     78.06% # the distribution of provider component (Count)
system.cpu.branchPred.stream_tage.providerTableDist::5       786070      3.17%     81.24% # the distribution of provider component (Count)
system.cpu.branchPred.stream_tage.providerTableDist::6       721261      2.91%     84.15% # the distribution of provider component (Count)
system.cpu.branchPred.stream_tage.providerTableDist::7       819945      3.31%     87.46% # the distribution of provider component (Count)
system.cpu.branchPred.stream_tage.providerTableDist::8       978182      3.95%     91.41% # the distribution of provider component (Count)
system.cpu.branchPred.stream_tage.providerTableDist::9       887253      3.58%     94.99% # the distribution of provider component (Count)
system.cpu.branchPred.stream_tage.providerTableDist::10       617664      2.49%     97.49% # the distribution of provider component (Count)
system.cpu.branchPred.stream_tage.providerTableDist::11       257512      1.04%     98.53% # the distribution of provider component (Count)
system.cpu.branchPred.stream_tage.providerTableDist::12       153350      0.62%     99.15% # the distribution of provider component (Count)
system.cpu.branchPred.stream_tage.providerTableDist::13        91600      0.37%     99.52% # the distribution of provider component (Count)
system.cpu.branchPred.stream_tage.providerTableDist::14        73572      0.30%     99.81% # the distribution of provider component (Count)
system.cpu.branchPred.stream_tage.providerTableDist::15        46095      0.19%    100.00% # the distribution of provider component (Count)
system.cpu.branchPred.stream_tage.providerTableDist::16            0      0.00%    100.00% # the distribution of provider component (Count)
system.cpu.branchPred.stream_tage.providerTableDist::17            0      0.00%    100.00% # the distribution of provider component (Count)
system.cpu.branchPred.stream_tage.providerTableDist::18            0      0.00%    100.00% # the distribution of provider component (Count)
system.cpu.branchPred.stream_tage.providerTableDist::19            0      0.00%    100.00% # the distribution of provider component (Count)
system.cpu.branchPred.stream_tage.providerTableDist::20            0      0.00%    100.00% # the distribution of provider component (Count)
system.cpu.branchPred.stream_tage.providerTableDist::21            0      0.00%    100.00% # the distribution of provider component (Count)
system.cpu.branchPred.stream_tage.providerTableDist::overflows            0      0.00%    100.00% # the distribution of provider component (Count)
system.cpu.branchPred.stream_tage.providerTableDist::min_value            0                       # the distribution of provider component (Count)
system.cpu.branchPred.stream_tage.providerTableDist::max_value           15                       # the distribution of provider component (Count)
system.cpu.branchPred.stream_tage.providerTableDist::total     24765069                       # the distribution of provider component (Count)
system.cpu.commit.commitSquashedInsts        13168643                       # The number of squashed insts skipped by commit (Count)
system.cpu.commit.commitNonSpecStalls             697                       # The number of times commit has been forced to stall to communicate backwards (Count)
system.cpu.commit.branchMispredicts            472619                       # The number of times a branch was mispredicted (Count)
system.cpu.commit.numCommittedDist::samples     32625660                       # Number of insts commited each cycle (Count)
system.cpu.commit.numCommittedDist::mean     1.532536                       # Number of insts commited each cycle (Count)
system.cpu.commit.numCommittedDist::stdev     2.520789                       # Number of insts commited each cycle (Count)
system.cpu.commit.numCommittedDist::underflows            0      0.00%      0.00% # Number of insts commited each cycle (Count)
system.cpu.commit.numCommittedDist::0        20082863     61.56%     61.56% # Number of insts commited each cycle (Count)
system.cpu.commit.numCommittedDist::1         2240686      6.87%     68.42% # Number of insts commited each cycle (Count)
system.cpu.commit.numCommittedDist::2         3126799      9.58%     78.01% # Number of insts commited each cycle (Count)
system.cpu.commit.numCommittedDist::3         1472954      4.51%     82.52% # Number of insts commited each cycle (Count)
system.cpu.commit.numCommittedDist::4         1270731      3.89%     86.42% # Number of insts commited each cycle (Count)
system.cpu.commit.numCommittedDist::5          530698      1.63%     88.04% # Number of insts commited each cycle (Count)
system.cpu.commit.numCommittedDist::6          267093      0.82%     88.86% # Number of insts commited each cycle (Count)
system.cpu.commit.numCommittedDist::7         1322795      4.05%     92.92% # Number of insts commited each cycle (Count)
system.cpu.commit.numCommittedDist::8         2311041      7.08%    100.00% # Number of insts commited each cycle (Count)
system.cpu.commit.numCommittedDist::overflows            0      0.00%    100.00% # Number of insts commited each cycle (Count)
system.cpu.commit.numCommittedDist::min_value            0                       # Number of insts commited each cycle (Count)
system.cpu.commit.numCommittedDist::max_value            8                       # Number of insts commited each cycle (Count)
system.cpu.commit.numCommittedDist::total     32625660                       # Number of insts commited each cycle (Count)
system.cpu.commit.instsCommitted             50000000                       # Number of instructions committed (Count)
system.cpu.commit.opsCommitted               50000011                       # Number of ops (including micro ops) committed (Count)
system.cpu.commit.memRefs                    15066749                       # Number of memory references committed (Count)
system.cpu.commit.loads                      12169538                       # Number of loads committed (Count)
system.cpu.commit.amos                             11                       # Number of atomic instructions committed (Count)
system.cpu.commit.membars                          22                       # Number of memory barriers committed (Count)
system.cpu.commit.branches                   10897531                       # Number of branches committed (Count)
system.cpu.commit.vectorInstructions                0                       # Number of committed Vector instructions. (Count)
system.cpu.commit.floating                     606361                       # Number of committed floating point instructions. (Count)
system.cpu.commit.integer                    49502147                       # Number of committed integer instructions. (Count)
system.cpu.commit.functionCalls                105894                       # Number of function calls committed. (Count)
system.cpu.commit.committedInstType_0::No_OpClass          674      0.00%      0.00% # Class of committed instruction (Count)
system.cpu.commit.committedInstType_0::IntAlu     34033566     68.07%     68.07% # Class of committed instruction (Count)
system.cpu.commit.committedInstType_0::IntMult       550718      1.10%     69.17% # Class of committed instruction (Count)
system.cpu.commit.committedInstType_0::IntDiv        49617      0.10%     69.27% # Class of committed instruction (Count)
system.cpu.commit.committedInstType_0::FloatAdd        25126      0.05%     69.32% # Class of committed instruction (Count)
system.cpu.commit.committedInstType_0::FloatCmp       102510      0.21%     69.52% # Class of committed instruction (Count)
system.cpu.commit.committedInstType_0::FloatCvt       105149      0.21%     69.73% # Class of committed instruction (Count)
system.cpu.commit.committedInstType_0::FloatMult        30234      0.06%     69.80% # Class of committed instruction (Count)
system.cpu.commit.committedInstType_0::FloatMultAcc         5612      0.01%     69.81% # Class of committed instruction (Count)
system.cpu.commit.committedInstType_0::FloatDiv         9164      0.02%     69.82% # Class of committed instruction (Count)
system.cpu.commit.committedInstType_0::FloatMisc        20892      0.04%     69.87% # Class of committed instruction (Count)
system.cpu.commit.committedInstType_0::FloatSqrt            0      0.00%     69.87% # Class of committed instruction (Count)
system.cpu.commit.committedInstType_0::SimdAdd            0      0.00%     69.87% # Class of committed instruction (Count)
system.cpu.commit.committedInstType_0::SimdAddAcc            0      0.00%     69.87% # Class of committed instruction (Count)
system.cpu.commit.committedInstType_0::SimdAlu            0      0.00%     69.87% # Class of committed instruction (Count)
system.cpu.commit.committedInstType_0::SimdCmp            0      0.00%     69.87% # Class of committed instruction (Count)
system.cpu.commit.committedInstType_0::SimdCvt            0      0.00%     69.87% # Class of committed instruction (Count)
system.cpu.commit.committedInstType_0::SimdMisc            0      0.00%     69.87% # Class of committed instruction (Count)
system.cpu.commit.committedInstType_0::SimdMult            0      0.00%     69.87% # Class of committed instruction (Count)
system.cpu.commit.committedInstType_0::SimdMultAcc            0      0.00%     69.87% # Class of committed instruction (Count)
system.cpu.commit.committedInstType_0::SimdShift            0      0.00%     69.87% # Class of committed instruction (Count)
system.cpu.commit.committedInstType_0::SimdShiftAcc            0      0.00%     69.87% # Class of committed instruction (Count)
system.cpu.commit.committedInstType_0::SimdDiv            0      0.00%     69.87% # Class of committed instruction (Count)
system.cpu.commit.committedInstType_0::SimdSqrt            0      0.00%     69.87% # Class of committed instruction (Count)
system.cpu.commit.committedInstType_0::SimdFloatAdd            0      0.00%     69.87% # Class of committed instruction (Count)
system.cpu.commit.committedInstType_0::SimdFloatAlu            0      0.00%     69.87% # Class of committed instruction (Count)
system.cpu.commit.committedInstType_0::SimdFloatCmp            0      0.00%     69.87% # Class of committed instruction (Count)
system.cpu.commit.committedInstType_0::SimdFloatCvt            0      0.00%     69.87% # Class of committed instruction (Count)
system.cpu.commit.committedInstType_0::SimdFloatDiv            0      0.00%     69.87% # Class of committed instruction (Count)
system.cpu.commit.committedInstType_0::SimdFloatMisc            0      0.00%     69.87% # Class of committed instruction (Count)
system.cpu.commit.committedInstType_0::SimdFloatMult            0      0.00%     69.87% # Class of committed instruction (Count)
system.cpu.commit.committedInstType_0::SimdFloatMultAcc            0      0.00%     69.87% # Class of committed instruction (Count)
system.cpu.commit.committedInstType_0::SimdFloatSqrt            0      0.00%     69.87% # Class of committed instruction (Count)
system.cpu.commit.committedInstType_0::SimdReduceAdd            0      0.00%     69.87% # Class of committed instruction (Count)
system.cpu.commit.committedInstType_0::SimdReduceAlu            0      0.00%     69.87% # Class of committed instruction (Count)
system.cpu.commit.committedInstType_0::SimdReduceCmp            0      0.00%     69.87% # Class of committed instruction (Count)
system.cpu.commit.committedInstType_0::SimdFloatReduceAdd            0      0.00%     69.87% # Class of committed instruction (Count)
system.cpu.commit.committedInstType_0::SimdFloatReduceCmp            0      0.00%     69.87% # Class of committed instruction (Count)
system.cpu.commit.committedInstType_0::SimdAes            0      0.00%     69.87% # Class of committed instruction (Count)
system.cpu.commit.committedInstType_0::SimdAesMix            0      0.00%     69.87% # Class of committed instruction (Count)
system.cpu.commit.committedInstType_0::SimdSha1Hash            0      0.00%     69.87% # Class of committed instruction (Count)
system.cpu.commit.committedInstType_0::SimdSha1Hash2            0      0.00%     69.87% # Class of committed instruction (Count)
system.cpu.commit.committedInstType_0::SimdSha256Hash            0      0.00%     69.87% # Class of committed instruction (Count)
system.cpu.commit.committedInstType_0::SimdSha256Hash2            0      0.00%     69.87% # Class of committed instruction (Count)
system.cpu.commit.committedInstType_0::SimdShaSigma2            0      0.00%     69.87% # Class of committed instruction (Count)
system.cpu.commit.committedInstType_0::SimdShaSigma3            0      0.00%     69.87% # Class of committed instruction (Count)
system.cpu.commit.committedInstType_0::SimdPredAlu            0      0.00%     69.87% # Class of committed instruction (Count)
system.cpu.commit.committedInstType_0::MemRead     11955353     23.91%     93.78% # Class of committed instruction (Count)
system.cpu.commit.committedInstType_0::MemWrite      2803722      5.61%     99.38% # Class of committed instruction (Count)
system.cpu.commit.committedInstType_0::FloatMemRead       214196      0.43%     99.81% # Class of committed instruction (Count)
system.cpu.commit.committedInstType_0::FloatMemWrite        93478      0.19%    100.00% # Class of committed instruction (Count)
system.cpu.commit.committedInstType_0::IprAccess            0      0.00%    100.00% # Class of committed instruction (Count)
system.cpu.commit.committedInstType_0::InstPrefetch            0      0.00%    100.00% # Class of committed instruction (Count)
system.cpu.commit.committedInstType_0::total     50000011                       # Class of committed instruction (Count)
system.cpu.commit.commitEligibleSamples       2311041                       # number cycles where commit BW limit reached (Cycle)
system.cpu.dcache.demandHits::cpu.data       14814717                       # number of demand (read+write) hits (Count)
system.cpu.dcache.demandHits::total          14814717                       # number of demand (read+write) hits (Count)
system.cpu.dcache.overallHits::cpu.data      14814717                       # number of overall hits (Count)
system.cpu.dcache.overallHits::total         14814717                       # number of overall hits (Count)
system.cpu.dcache.demandMisses::cpu.data      1829577                       # number of demand (read+write) misses (Count)
system.cpu.dcache.demandMisses::total         1829577                       # number of demand (read+write) misses (Count)
system.cpu.dcache.overallMisses::cpu.data      1829577                       # number of overall misses (Count)
system.cpu.dcache.overallMisses::total        1829577                       # number of overall misses (Count)
system.cpu.dcache.demandMissLatency::cpu.data 167618177500                       # number of demand (read+write) miss ticks (Tick)
system.cpu.dcache.demandMissLatency::total 167618177500                       # number of demand (read+write) miss ticks (Tick)
system.cpu.dcache.overallMissLatency::cpu.data 167618177500                       # number of overall miss ticks (Tick)
system.cpu.dcache.overallMissLatency::total 167618177500                       # number of overall miss ticks (Tick)
system.cpu.dcache.demandAccesses::cpu.data     16644294                       # number of demand (read+write) accesses (Count)
system.cpu.dcache.demandAccesses::total      16644294                       # number of demand (read+write) accesses (Count)
system.cpu.dcache.overallAccesses::cpu.data     16644294                       # number of overall (read+write) accesses (Count)
system.cpu.dcache.overallAccesses::total     16644294                       # number of overall (read+write) accesses (Count)
system.cpu.dcache.demandMissRate::cpu.data     0.109922                       # miss rate for demand accesses (Ratio)
system.cpu.dcache.demandMissRate::total      0.109922                       # miss rate for demand accesses (Ratio)
system.cpu.dcache.overallMissRate::cpu.data     0.109922                       # miss rate for overall accesses (Ratio)
system.cpu.dcache.overallMissRate::total     0.109922                       # miss rate for overall accesses (Ratio)
system.cpu.dcache.demandAvgMissLatency::cpu.data 91615.809283                       # average overall miss latency in ticks ((Tick/Count))
system.cpu.dcache.demandAvgMissLatency::total 91615.809283                       # average overall miss latency in ticks ((Tick/Count))
system.cpu.dcache.overallAvgMissLatency::cpu.data 91615.809283                       # average overall miss latency ((Tick/Count))
system.cpu.dcache.overallAvgMissLatency::total 91615.809283                       # average overall miss latency ((Tick/Count))
system.cpu.dcache.blockedCycles::no_mshrs         3121                       # number of cycles access was blocked (Cycle)
system.cpu.dcache.blockedCycles::no_targets          979                       # number of cycles access was blocked (Cycle)
system.cpu.dcache.blockedCauses::no_mshrs          157                       # number of times access was blocked (Count)
system.cpu.dcache.blockedCauses::no_targets           16                       # number of times access was blocked (Count)
system.cpu.dcache.avgBlocked::no_mshrs      19.878981                       # average number of cycles each access was blocked ((Cycle/Count))
system.cpu.dcache.avgBlocked::no_targets    61.187500                       # average number of cycles each access was blocked ((Cycle/Count))
system.cpu.dcache.writebacks::writebacks       400119                       # number of writebacks (Count)
system.cpu.dcache.writebacks::total            400119                       # number of writebacks (Count)
system.cpu.dcache.demandMshrHits::cpu.data      1410520                       # number of demand (read+write) MSHR hits (Count)
system.cpu.dcache.demandMshrHits::total       1410520                       # number of demand (read+write) MSHR hits (Count)
system.cpu.dcache.overallMshrHits::cpu.data      1410520                       # number of overall MSHR hits (Count)
system.cpu.dcache.overallMshrHits::total      1410520                       # number of overall MSHR hits (Count)
system.cpu.dcache.demandMshrMisses::cpu.data       419057                       # number of demand (read+write) MSHR misses (Count)
system.cpu.dcache.demandMshrMisses::total       419057                       # number of demand (read+write) MSHR misses (Count)
system.cpu.dcache.overallMshrMisses::cpu.data       419057                       # number of overall MSHR misses (Count)
system.cpu.dcache.overallMshrMisses::total       419057                       # number of overall MSHR misses (Count)
system.cpu.dcache.overallMshrUncacheable::cpu.data            2                       # number of overall MSHR uncacheable misses (Count)
system.cpu.dcache.overallMshrUncacheable::total            2                       # number of overall MSHR uncacheable misses (Count)
system.cpu.dcache.demandMshrMissLatency::cpu.data  42700647500                       # number of demand (read+write) MSHR miss ticks (Tick)
system.cpu.dcache.demandMshrMissLatency::total  42700647500                       # number of demand (read+write) MSHR miss ticks (Tick)
system.cpu.dcache.overallMshrMissLatency::cpu.data  42700647500                       # number of overall MSHR miss ticks (Tick)
system.cpu.dcache.overallMshrMissLatency::total  42700647500                       # number of overall MSHR miss ticks (Tick)
system.cpu.dcache.demandMshrMissRate::cpu.data     0.025177                       # mshr miss ratio for demand accesses (Ratio)
system.cpu.dcache.demandMshrMissRate::total     0.025177                       # mshr miss ratio for demand accesses (Ratio)
system.cpu.dcache.overallMshrMissRate::cpu.data     0.025177                       # mshr miss ratio for overall accesses (Ratio)
system.cpu.dcache.overallMshrMissRate::total     0.025177                       # mshr miss ratio for overall accesses (Ratio)
system.cpu.dcache.demandAvgMshrMissLatency::cpu.data 101896.991340                       # average overall mshr miss latency ((Tick/Count))
system.cpu.dcache.demandAvgMshrMissLatency::total 101896.991340                       # average overall mshr miss latency ((Tick/Count))
system.cpu.dcache.overallAvgMshrMissLatency::cpu.data 101896.991340                       # average overall mshr miss latency ((Tick/Count))
system.cpu.dcache.overallAvgMshrMissLatency::total 101896.991340                       # average overall mshr miss latency ((Tick/Count))
system.cpu.dcache.replacements                 417010                       # number of replacements (Count)
system.cpu.dcache.LoadLockedReq.hits::cpu.data           10                       # number of LoadLockedReq hits (Count)
system.cpu.dcache.LoadLockedReq.hits::total           10                       # number of LoadLockedReq hits (Count)
system.cpu.dcache.LoadLockedReq.misses::cpu.data            1                       # number of LoadLockedReq misses (Count)
system.cpu.dcache.LoadLockedReq.misses::total            1                       # number of LoadLockedReq misses (Count)
system.cpu.dcache.LoadLockedReq.missLatency::cpu.data        69000                       # number of LoadLockedReq miss ticks (Tick)
system.cpu.dcache.LoadLockedReq.missLatency::total        69000                       # number of LoadLockedReq miss ticks (Tick)
system.cpu.dcache.LoadLockedReq.accesses::cpu.data           11                       # number of LoadLockedReq accesses(hits+misses) (Count)
system.cpu.dcache.LoadLockedReq.accesses::total           11                       # number of LoadLockedReq accesses(hits+misses) (Count)
system.cpu.dcache.LoadLockedReq.missRate::cpu.data     0.090909                       # miss rate for LoadLockedReq accesses (Ratio)
system.cpu.dcache.LoadLockedReq.missRate::total     0.090909                       # miss rate for LoadLockedReq accesses (Ratio)
system.cpu.dcache.LoadLockedReq.avgMissLatency::cpu.data        69000                       # average LoadLockedReq miss latency ((Tick/Count))
system.cpu.dcache.LoadLockedReq.avgMissLatency::total        69000                       # average LoadLockedReq miss latency ((Tick/Count))
system.cpu.dcache.LoadLockedReq.mshrMisses::cpu.data            1                       # number of LoadLockedReq MSHR misses (Count)
system.cpu.dcache.LoadLockedReq.mshrMisses::total            1                       # number of LoadLockedReq MSHR misses (Count)
system.cpu.dcache.LoadLockedReq.mshrMissLatency::cpu.data        68500                       # number of LoadLockedReq MSHR miss ticks (Tick)
system.cpu.dcache.LoadLockedReq.mshrMissLatency::total        68500                       # number of LoadLockedReq MSHR miss ticks (Tick)
system.cpu.dcache.LoadLockedReq.mshrMissRate::cpu.data     0.090909                       # mshr miss rate for LoadLockedReq accesses (Ratio)
system.cpu.dcache.LoadLockedReq.mshrMissRate::total     0.090909                       # mshr miss rate for LoadLockedReq accesses (Ratio)
system.cpu.dcache.LoadLockedReq.avgMshrMissLatency::cpu.data        68500                       # average LoadLockedReq mshr miss latency ((Tick/Count))
system.cpu.dcache.LoadLockedReq.avgMshrMissLatency::total        68500                       # average LoadLockedReq mshr miss latency ((Tick/Count))
system.cpu.dcache.ReadReq.hits::cpu.data     13653985                       # number of ReadReq hits (Count)
system.cpu.dcache.ReadReq.hits::total        13653985                       # number of ReadReq hits (Count)
system.cpu.dcache.ReadReq.misses::cpu.data        93122                       # number of ReadReq misses (Count)
system.cpu.dcache.ReadReq.misses::total         93122                       # number of ReadReq misses (Count)
system.cpu.dcache.ReadReq.missLatency::cpu.data   4270028000                       # number of ReadReq miss ticks (Tick)
system.cpu.dcache.ReadReq.missLatency::total   4270028000                       # number of ReadReq miss ticks (Tick)
system.cpu.dcache.ReadReq.accesses::cpu.data     13747107                       # number of ReadReq accesses(hits+misses) (Count)
system.cpu.dcache.ReadReq.accesses::total     13747107                       # number of ReadReq accesses(hits+misses) (Count)
system.cpu.dcache.ReadReq.missRate::cpu.data     0.006774                       # miss rate for ReadReq accesses (Ratio)
system.cpu.dcache.ReadReq.missRate::total     0.006774                       # miss rate for ReadReq accesses (Ratio)
system.cpu.dcache.ReadReq.avgMissLatency::cpu.data 45854.126844                       # average ReadReq miss latency ((Tick/Count))
system.cpu.dcache.ReadReq.avgMissLatency::total 45854.126844                       # average ReadReq miss latency ((Tick/Count))
system.cpu.dcache.ReadReq.mshrHits::cpu.data        62544                       # number of ReadReq MSHR hits (Count)
system.cpu.dcache.ReadReq.mshrHits::total        62544                       # number of ReadReq MSHR hits (Count)
system.cpu.dcache.ReadReq.mshrMisses::cpu.data        30578                       # number of ReadReq MSHR misses (Count)
system.cpu.dcache.ReadReq.mshrMisses::total        30578                       # number of ReadReq MSHR misses (Count)
system.cpu.dcache.ReadReq.mshrMissLatency::cpu.data   1339515500                       # number of ReadReq MSHR miss ticks (Tick)
system.cpu.dcache.ReadReq.mshrMissLatency::total   1339515500                       # number of ReadReq MSHR miss ticks (Tick)
system.cpu.dcache.ReadReq.mshrMissRate::cpu.data     0.002224                       # mshr miss rate for ReadReq accesses (Ratio)
system.cpu.dcache.ReadReq.mshrMissRate::total     0.002224                       # mshr miss rate for ReadReq accesses (Ratio)
system.cpu.dcache.ReadReq.avgMshrMissLatency::cpu.data 43806.511217                       # average ReadReq mshr miss latency ((Tick/Count))
system.cpu.dcache.ReadReq.avgMshrMissLatency::total 43806.511217                       # average ReadReq mshr miss latency ((Tick/Count))
system.cpu.dcache.StoreCondReq.hits::cpu.data           11                       # number of StoreCondReq hits (Count)
system.cpu.dcache.StoreCondReq.hits::total           11                       # number of StoreCondReq hits (Count)
system.cpu.dcache.StoreCondReq.accesses::cpu.data           11                       # number of StoreCondReq accesses(hits+misses) (Count)
system.cpu.dcache.StoreCondReq.accesses::total           11                       # number of StoreCondReq accesses(hits+misses) (Count)
system.cpu.dcache.SwapReq.hits::cpu.data           11                       # number of SwapReq hits (Count)
system.cpu.dcache.SwapReq.hits::total              11                       # number of SwapReq hits (Count)
system.cpu.dcache.SwapReq.accesses::cpu.data           11                       # number of SwapReq accesses(hits+misses) (Count)
system.cpu.dcache.SwapReq.accesses::total           11                       # number of SwapReq accesses(hits+misses) (Count)
system.cpu.dcache.WriteReq.hits::cpu.data      1160732                       # number of WriteReq hits (Count)
system.cpu.dcache.WriteReq.hits::total        1160732                       # number of WriteReq hits (Count)
system.cpu.dcache.WriteReq.misses::cpu.data      1736455                       # number of WriteReq misses (Count)
system.cpu.dcache.WriteReq.misses::total      1736455                       # number of WriteReq misses (Count)
system.cpu.dcache.WriteReq.missLatency::cpu.data 163348149500                       # number of WriteReq miss ticks (Tick)
system.cpu.dcache.WriteReq.missLatency::total 163348149500                       # number of WriteReq miss ticks (Tick)
system.cpu.dcache.WriteReq.accesses::cpu.data      2897187                       # number of WriteReq accesses(hits+misses) (Count)
system.cpu.dcache.WriteReq.accesses::total      2897187                       # number of WriteReq accesses(hits+misses) (Count)
system.cpu.dcache.WriteReq.missRate::cpu.data     0.599359                       # miss rate for WriteReq accesses (Ratio)
system.cpu.dcache.WriteReq.missRate::total     0.599359                       # miss rate for WriteReq accesses (Ratio)
system.cpu.dcache.WriteReq.avgMissLatency::cpu.data 94069.900746                       # average WriteReq miss latency ((Tick/Count))
system.cpu.dcache.WriteReq.avgMissLatency::total 94069.900746                       # average WriteReq miss latency ((Tick/Count))
system.cpu.dcache.WriteReq.mshrHits::cpu.data      1347976                       # number of WriteReq MSHR hits (Count)
system.cpu.dcache.WriteReq.mshrHits::total      1347976                       # number of WriteReq MSHR hits (Count)
system.cpu.dcache.WriteReq.mshrMisses::cpu.data       388479                       # number of WriteReq MSHR misses (Count)
system.cpu.dcache.WriteReq.mshrMisses::total       388479                       # number of WriteReq MSHR misses (Count)
system.cpu.dcache.WriteReq.mshrUncacheable::cpu.data            2                       # number of WriteReq MSHR uncacheable (Count)
system.cpu.dcache.WriteReq.mshrUncacheable::total            2                       # number of WriteReq MSHR uncacheable (Count)
system.cpu.dcache.WriteReq.mshrMissLatency::cpu.data  41361132000                       # number of WriteReq MSHR miss ticks (Tick)
system.cpu.dcache.WriteReq.mshrMissLatency::total  41361132000                       # number of WriteReq MSHR miss ticks (Tick)
system.cpu.dcache.WriteReq.mshrMissRate::cpu.data     0.134088                       # mshr miss rate for WriteReq accesses (Ratio)
system.cpu.dcache.WriteReq.mshrMissRate::total     0.134088                       # mshr miss rate for WriteReq accesses (Ratio)
system.cpu.dcache.WriteReq.avgMshrMissLatency::cpu.data 106469.415335                       # average WriteReq mshr miss latency ((Tick/Count))
system.cpu.dcache.WriteReq.avgMshrMissLatency::total 106469.415335                       # average WriteReq mshr miss latency ((Tick/Count))
system.cpu.dcache.power_state.pwrStateResidencyTicks::UNDEFINED  17350485500                       # Cumulative time (in ticks) in various power states (Tick)
system.cpu.dcache.tags.tagsInUse          2020.592052                       # Average ticks per tags in use ((Tick/Count))
system.cpu.dcache.tags.totalRefs             13029160                       # Total number of references to valid blocks. (Count)
system.cpu.dcache.tags.sampledRefs             417010                       # Sample count of references to valid blocks. (Count)
system.cpu.dcache.tags.avgRefs              31.244239                       # Average number of references to valid blocks. ((Count/Count))
system.cpu.dcache.tags.warmupTick              153500                       # The tick when the warmup percentage was hit. (Tick)
system.cpu.dcache.tags.occupancies::cpu.data  2020.592052                       # Average occupied blocks per tick, per requestor ((Count/Tick))
system.cpu.dcache.tags.avgOccs::cpu.data     0.986617                       # Average percentage of cache occupancy ((Ratio/Tick))
system.cpu.dcache.tags.avgOccs::total        0.986617                       # Average percentage of cache occupancy ((Ratio/Tick))
system.cpu.dcache.tags.occupanciesTaskId::1024         2048                       # Occupied blocks per task id (Count)
system.cpu.dcache.tags.ageTaskId_1024::0           49                       # Occupied blocks per task id, per block age (Count)
system.cpu.dcache.tags.ageTaskId_1024::1          144                       # Occupied blocks per task id, per block age (Count)
system.cpu.dcache.tags.ageTaskId_1024::2         1811                       # Occupied blocks per task id, per block age (Count)
system.cpu.dcache.tags.ageTaskId_1024::3           44                       # Occupied blocks per task id, per block age (Count)
system.cpu.dcache.tags.ratioOccsTaskId::1024            1                       # Ratio of occupied blocks and all blocks, per task id (Ratio)
system.cpu.dcache.tags.tagAccesses          133573674                       # Number of tag accesses (Count)
system.cpu.dcache.tags.dataAccesses         133573674                       # Number of data accesses (Count)
system.cpu.dcache.tags.power_state.pwrStateResidencyTicks::UNDEFINED  17350485500                       # Cumulative time (in ticks) in various power states (Tick)
system.cpu.decode.idleCycles                  1864805                       # Number of cycles decode is idle (Cycle)
system.cpu.decode.blockedCycles              19156465                       # Number of cycles decode is blocked (Cycle)
system.cpu.decode.runCycles                  12147020                       # Number of cycles decode is running (Cycle)
system.cpu.decode.unblockCycles                957344                       # Number of cycles decode is unblocking (Cycle)
system.cpu.decode.squashCycles                 474360                       # Number of cycles decode is squashing (Cycle)
system.cpu.decode.branchResolved              7970478                       # Number of times decode resolved a branch (Count)
system.cpu.decode.branchMispred                 53632                       # Number of times decode detected a branch misprediction (Count)
system.cpu.decode.decodedInsts               69338972                       # Number of instructions handled by decode (Count)
system.cpu.decode.squashedInsts                350607                       # Number of squashed instructions handled by decode (Count)
system.cpu.dtb_walker_cache.demandHits::cpu.mmu.dtb.walker       124965                       # number of demand (read+write) hits (Count)
system.cpu.dtb_walker_cache.demandHits::total       124965                       # number of demand (read+write) hits (Count)
system.cpu.dtb_walker_cache.overallHits::cpu.mmu.dtb.walker       124965                       # number of overall hits (Count)
system.cpu.dtb_walker_cache.overallHits::total       124965                       # number of overall hits (Count)
system.cpu.dtb_walker_cache.demandMisses::cpu.mmu.dtb.walker        59878                       # number of demand (read+write) misses (Count)
system.cpu.dtb_walker_cache.demandMisses::total        59878                       # number of demand (read+write) misses (Count)
system.cpu.dtb_walker_cache.overallMisses::cpu.mmu.dtb.walker        59878                       # number of overall misses (Count)
system.cpu.dtb_walker_cache.overallMisses::total        59878                       # number of overall misses (Count)
system.cpu.dtb_walker_cache.demandMissLatency::cpu.mmu.dtb.walker   3626586500                       # number of demand (read+write) miss ticks (Tick)
system.cpu.dtb_walker_cache.demandMissLatency::total   3626586500                       # number of demand (read+write) miss ticks (Tick)
system.cpu.dtb_walker_cache.overallMissLatency::cpu.mmu.dtb.walker   3626586500                       # number of overall miss ticks (Tick)
system.cpu.dtb_walker_cache.overallMissLatency::total   3626586500                       # number of overall miss ticks (Tick)
system.cpu.dtb_walker_cache.demandAccesses::cpu.mmu.dtb.walker       184843                       # number of demand (read+write) accesses (Count)
system.cpu.dtb_walker_cache.demandAccesses::total       184843                       # number of demand (read+write) accesses (Count)
system.cpu.dtb_walker_cache.overallAccesses::cpu.mmu.dtb.walker       184843                       # number of overall (read+write) accesses (Count)
system.cpu.dtb_walker_cache.overallAccesses::total       184843                       # number of overall (read+write) accesses (Count)
system.cpu.dtb_walker_cache.demandMissRate::cpu.mmu.dtb.walker     0.323940                       # miss rate for demand accesses (Ratio)
system.cpu.dtb_walker_cache.demandMissRate::total     0.323940                       # miss rate for demand accesses (Ratio)
system.cpu.dtb_walker_cache.overallMissRate::cpu.mmu.dtb.walker     0.323940                       # miss rate for overall accesses (Ratio)
system.cpu.dtb_walker_cache.overallMissRate::total     0.323940                       # miss rate for overall accesses (Ratio)
system.cpu.dtb_walker_cache.demandAvgMissLatency::cpu.mmu.dtb.walker 60566.259728                       # average overall miss latency in ticks ((Tick/Count))
system.cpu.dtb_walker_cache.demandAvgMissLatency::total 60566.259728                       # average overall miss latency in ticks ((Tick/Count))
system.cpu.dtb_walker_cache.overallAvgMissLatency::cpu.mmu.dtb.walker 60566.259728                       # average overall miss latency ((Tick/Count))
system.cpu.dtb_walker_cache.overallAvgMissLatency::total 60566.259728                       # average overall miss latency ((Tick/Count))
system.cpu.dtb_walker_cache.blockedCycles::no_mshrs            0                       # number of cycles access was blocked (Cycle)
system.cpu.dtb_walker_cache.blockedCycles::no_targets            0                       # number of cycles access was blocked (Cycle)
system.cpu.dtb_walker_cache.blockedCauses::no_mshrs            0                       # number of times access was blocked (Count)
system.cpu.dtb_walker_cache.blockedCauses::no_targets            0                       # number of times access was blocked (Count)
system.cpu.dtb_walker_cache.avgBlocked::no_mshrs          nan                       # average number of cycles each access was blocked ((Cycle/Count))
system.cpu.dtb_walker_cache.avgBlocked::no_targets          nan                       # average number of cycles each access was blocked ((Cycle/Count))
system.cpu.dtb_walker_cache.demandMshrMisses::cpu.mmu.dtb.walker        59878                       # number of demand (read+write) MSHR misses (Count)
system.cpu.dtb_walker_cache.demandMshrMisses::total        59878                       # number of demand (read+write) MSHR misses (Count)
system.cpu.dtb_walker_cache.overallMshrMisses::cpu.mmu.dtb.walker        59878                       # number of overall MSHR misses (Count)
system.cpu.dtb_walker_cache.overallMshrMisses::total        59878                       # number of overall MSHR misses (Count)
system.cpu.dtb_walker_cache.demandMshrMissLatency::cpu.mmu.dtb.walker   3566708500                       # number of demand (read+write) MSHR miss ticks (Tick)
system.cpu.dtb_walker_cache.demandMshrMissLatency::total   3566708500                       # number of demand (read+write) MSHR miss ticks (Tick)
system.cpu.dtb_walker_cache.overallMshrMissLatency::cpu.mmu.dtb.walker   3566708500                       # number of overall MSHR miss ticks (Tick)
system.cpu.dtb_walker_cache.overallMshrMissLatency::total   3566708500                       # number of overall MSHR miss ticks (Tick)
system.cpu.dtb_walker_cache.demandMshrMissRate::cpu.mmu.dtb.walker     0.323940                       # mshr miss ratio for demand accesses (Ratio)
system.cpu.dtb_walker_cache.demandMshrMissRate::total     0.323940                       # mshr miss ratio for demand accesses (Ratio)
system.cpu.dtb_walker_cache.overallMshrMissRate::cpu.mmu.dtb.walker     0.323940                       # mshr miss ratio for overall accesses (Ratio)
system.cpu.dtb_walker_cache.overallMshrMissRate::total     0.323940                       # mshr miss ratio for overall accesses (Ratio)
system.cpu.dtb_walker_cache.demandAvgMshrMissLatency::cpu.mmu.dtb.walker 59566.259728                       # average overall mshr miss latency ((Tick/Count))
system.cpu.dtb_walker_cache.demandAvgMshrMissLatency::total 59566.259728                       # average overall mshr miss latency ((Tick/Count))
system.cpu.dtb_walker_cache.overallAvgMshrMissLatency::cpu.mmu.dtb.walker 59566.259728                       # average overall mshr miss latency ((Tick/Count))
system.cpu.dtb_walker_cache.overallAvgMshrMissLatency::total 59566.259728                       # average overall mshr miss latency ((Tick/Count))
system.cpu.dtb_walker_cache.replacements        59862                       # number of replacements (Count)
system.cpu.dtb_walker_cache.ReadReq.hits::cpu.mmu.dtb.walker       124965                       # number of ReadReq hits (Count)
system.cpu.dtb_walker_cache.ReadReq.hits::total       124965                       # number of ReadReq hits (Count)
system.cpu.dtb_walker_cache.ReadReq.misses::cpu.mmu.dtb.walker        59878                       # number of ReadReq misses (Count)
system.cpu.dtb_walker_cache.ReadReq.misses::total        59878                       # number of ReadReq misses (Count)
system.cpu.dtb_walker_cache.ReadReq.missLatency::cpu.mmu.dtb.walker   3626586500                       # number of ReadReq miss ticks (Tick)
system.cpu.dtb_walker_cache.ReadReq.missLatency::total   3626586500                       # number of ReadReq miss ticks (Tick)
system.cpu.dtb_walker_cache.ReadReq.accesses::cpu.mmu.dtb.walker       184843                       # number of ReadReq accesses(hits+misses) (Count)
system.cpu.dtb_walker_cache.ReadReq.accesses::total       184843                       # number of ReadReq accesses(hits+misses) (Count)
system.cpu.dtb_walker_cache.ReadReq.missRate::cpu.mmu.dtb.walker     0.323940                       # miss rate for ReadReq accesses (Ratio)
system.cpu.dtb_walker_cache.ReadReq.missRate::total     0.323940                       # miss rate for ReadReq accesses (Ratio)
system.cpu.dtb_walker_cache.ReadReq.avgMissLatency::cpu.mmu.dtb.walker 60566.259728                       # average ReadReq miss latency ((Tick/Count))
system.cpu.dtb_walker_cache.ReadReq.avgMissLatency::total 60566.259728                       # average ReadReq miss latency ((Tick/Count))
system.cpu.dtb_walker_cache.ReadReq.mshrMisses::cpu.mmu.dtb.walker        59878                       # number of ReadReq MSHR misses (Count)
system.cpu.dtb_walker_cache.ReadReq.mshrMisses::total        59878                       # number of ReadReq MSHR misses (Count)
system.cpu.dtb_walker_cache.ReadReq.mshrMissLatency::cpu.mmu.dtb.walker   3566708500                       # number of ReadReq MSHR miss ticks (Tick)
system.cpu.dtb_walker_cache.ReadReq.mshrMissLatency::total   3566708500                       # number of ReadReq MSHR miss ticks (Tick)
system.cpu.dtb_walker_cache.ReadReq.mshrMissRate::cpu.mmu.dtb.walker     0.323940                       # mshr miss rate for ReadReq accesses (Ratio)
system.cpu.dtb_walker_cache.ReadReq.mshrMissRate::total     0.323940                       # mshr miss rate for ReadReq accesses (Ratio)
system.cpu.dtb_walker_cache.ReadReq.avgMshrMissLatency::cpu.mmu.dtb.walker 59566.259728                       # average ReadReq mshr miss latency ((Tick/Count))
system.cpu.dtb_walker_cache.ReadReq.avgMshrMissLatency::total 59566.259728                       # average ReadReq mshr miss latency ((Tick/Count))
system.cpu.dtb_walker_cache.power_state.pwrStateResidencyTicks::UNDEFINED  17350485500                       # Cumulative time (in ticks) in various power states (Tick)
system.cpu.dtb_walker_cache.tags.tagsInUse    15.941472                       # Average ticks per tags in use ((Tick/Count))
system.cpu.dtb_walker_cache.tags.totalRefs       184618                       # Total number of references to valid blocks. (Count)
system.cpu.dtb_walker_cache.tags.sampledRefs        59862                       # Sample count of references to valid blocks. (Count)
system.cpu.dtb_walker_cache.tags.avgRefs     3.084060                       # Average number of references to valid blocks. ((Count/Count))
system.cpu.dtb_walker_cache.tags.warmupTick      1615500                       # The tick when the warmup percentage was hit. (Tick)
system.cpu.dtb_walker_cache.tags.occupancies::cpu.mmu.dtb.walker    15.941472                       # Average occupied blocks per tick, per requestor ((Count/Tick))
system.cpu.dtb_walker_cache.tags.avgOccs::cpu.mmu.dtb.walker     0.996342                       # Average percentage of cache occupancy ((Ratio/Tick))
system.cpu.dtb_walker_cache.tags.avgOccs::total     0.996342                       # Average percentage of cache occupancy ((Ratio/Tick))
system.cpu.dtb_walker_cache.tags.occupanciesTaskId::1024           16                       # Occupied blocks per task id (Count)
system.cpu.dtb_walker_cache.tags.ageTaskId_1024::0            2                       # Occupied blocks per task id, per block age (Count)
system.cpu.dtb_walker_cache.tags.ageTaskId_1024::1            8                       # Occupied blocks per task id, per block age (Count)
system.cpu.dtb_walker_cache.tags.ageTaskId_1024::2            5                       # Occupied blocks per task id, per block age (Count)
system.cpu.dtb_walker_cache.tags.ageTaskId_1024::3            1                       # Occupied blocks per task id, per block age (Count)
system.cpu.dtb_walker_cache.tags.ratioOccsTaskId::1024            1                       # Ratio of occupied blocks and all blocks, per task id (Ratio)
system.cpu.dtb_walker_cache.tags.tagAccesses       429564                       # Number of tag accesses (Count)
system.cpu.dtb_walker_cache.tags.dataAccesses       429564                       # Number of data accesses (Count)
system.cpu.dtb_walker_cache.tags.power_state.pwrStateResidencyTicks::UNDEFINED  17350485500                       # Cumulative time (in ticks) in various power states (Tick)
system.cpu.fetch.icacheStallCycles              55847                       # Number of cycles fetch is stalled on an Icache miss (Cycle)
system.cpu.fetch.insts                       73042101                       # Number of instructions fetch has processed (Count)
system.cpu.fetch.branches                     8410759                       # Number of branches that fetch encountered (Count)
system.cpu.fetch.predictedBranches            8410759                       # Number of branches that fetch has predicted taken (Count)
system.cpu.fetch.cycles                      34001746                       # Number of cycles fetch has run and was not squashing or blocked (Cycle)
system.cpu.fetch.squashCycles                 1050530                       # Number of cycles fetch has spent squashing (Cycle)
system.cpu.fetch.tlbCycles                       8194                       # Number of cycles fetch has spent waiting for tlb (Cycle)
system.cpu.fetch.miscStallCycles                 4162                       # Number of cycles fetch has spent waiting on interrupts, or bad addresses, or out of MSHRs (Cycle)
system.cpu.fetch.pendingTrapStallCycles           329                       # Number of stall cycles due to pending traps (Cycle)
system.cpu.fetch.icacheWaitRetryStallCycles         4451                       # Number of stall cycles due to full MSHR (Cycle)
system.cpu.fetch.cacheLines                   5892216                       # Number of cache lines fetched (Count)
system.cpu.fetch.icacheSquashes                  2175                       # Number of outstanding Icache misses that were squashed (Count)
system.cpu.fetch.tlbSquashes                       64                       # Number of outstanding ITLB misses that were squashed (Count)
system.cpu.fetch.nisnDist::samples           34599994                       # Number of instructions fetched each cycle (Total) (Count)
system.cpu.fetch.nisnDist::mean              2.111044                       # Number of instructions fetched each cycle (Total) (Count)
system.cpu.fetch.nisnDist::stdev             2.951817                       # Number of instructions fetched each cycle (Total) (Count)
system.cpu.fetch.nisnDist::underflows               0      0.00%      0.00% # Number of instructions fetched each cycle (Total) (Count)
system.cpu.fetch.nisnDist::0                 18360628     53.07%     53.07% # Number of instructions fetched each cycle (Total) (Count)
system.cpu.fetch.nisnDist::1                  3913057     11.31%     64.37% # Number of instructions fetched each cycle (Total) (Count)
system.cpu.fetch.nisnDist::2                  1396450      4.04%     68.41% # Number of instructions fetched each cycle (Total) (Count)
system.cpu.fetch.nisnDist::3                  1801256      5.21%     73.62% # Number of instructions fetched each cycle (Total) (Count)
system.cpu.fetch.nisnDist::4                  1551821      4.49%     78.10% # Number of instructions fetched each cycle (Total) (Count)
system.cpu.fetch.nisnDist::5                  1152839      3.33%     81.43% # Number of instructions fetched each cycle (Total) (Count)
system.cpu.fetch.nisnDist::6                   819695      2.37%     83.80% # Number of instructions fetched each cycle (Total) (Count)
system.cpu.fetch.nisnDist::7                   791231      2.29%     86.09% # Number of instructions fetched each cycle (Total) (Count)
system.cpu.fetch.nisnDist::8                  4813017     13.91%    100.00% # Number of instructions fetched each cycle (Total) (Count)
system.cpu.fetch.nisnDist::overflows                0      0.00%    100.00% # Number of instructions fetched each cycle (Total) (Count)
system.cpu.fetch.nisnDist::min_value                0                       # Number of instructions fetched each cycle (Total) (Count)
system.cpu.fetch.nisnDist::max_value                8                       # Number of instructions fetched each cycle (Total) (Count)
system.cpu.fetch.nisnDist::total             34599994                       # Number of instructions fetched each cycle (Total) (Count)
system.cpu.fetch.branchRate                  0.242378                       # Number of branch fetches per cycle (Ratio)
system.cpu.fetch.rate                        2.104900                       # Number of inst fetches per cycle ((Count/Cycle))
system.cpu.icache.demandHits::cpu.inst        5888809                       # number of demand (read+write) hits (Count)
system.cpu.icache.demandHits::total           5888809                       # number of demand (read+write) hits (Count)
system.cpu.icache.overallHits::cpu.inst       5888809                       # number of overall hits (Count)
system.cpu.icache.overallHits::total          5888809                       # number of overall hits (Count)
system.cpu.icache.demandMisses::cpu.inst         3358                       # number of demand (read+write) misses (Count)
[...]
system.mem_ctrls.dram.bytesPerActivate::0-127         5651      8.62%      8.62% # Bytes accessed per row activation (Byte)
system.mem_ctrls.dram.bytesPerActivate::128-255         4063      6.20%     14.82% # Bytes accessed per row activation (Byte)
system.mem_ctrls.dram.bytesPerActivate::256-383         2470      3.77%     18.59% # Bytes accessed per row activation (Byte)
system.mem_ctrls.dram.bytesPerActivate::384-511         1829      2.79%     21.38% # Bytes accessed per row activation (Byte)
system.mem_ctrls.dram.bytesPerActivate::512-639         1822      2.78%     24.16% # Bytes accessed per row activation (Byte)
system.mem_ctrls.dram.bytesPerActivate::640-767         1112      1.70%     25.86% # Bytes accessed per row activation (Byte)
system.mem_ctrls.dram.bytesPerActivate::768-895          970      1.48%     27.34% # Bytes accessed per row activation (Byte)
system.mem_ctrls.dram.bytesPerActivate::896-1023         1007      1.54%     28.87% # Bytes accessed per row activation (Byte)
system.mem_ctrls.dram.bytesPerActivate::1024-1151        46614     71.13%    100.00% # Bytes accessed per row activation (Byte)
system.mem_ctrls.dram.bytesPerActivate::total        65538                       # Bytes accessed per row activation (Byte)
system.mem_ctrls.dram.bytesRead              29275904                       # Total bytes read (Byte)
system.mem_ctrls.dram.bytesWritten           24326016                       # Total bytes written (Byte)
system.mem_ctrls.dram.avgRdBW             1644.572118                       # Average DRAM read bandwidth in MiBytes/s ((Byte/Second))
system.mem_ctrls.dram.avgWrBW             1366.512462                       # Average DRAM write bandwidth in MiBytes/s ((Byte/Second))
system.mem_ctrls.dram.peakBW                 19207.00                       # Theoretical peak bandwidth in MiByte/s ((Byte/Second))
system.mem_ctrls.dram.busUtil                   15.68                       # Data bus utilization in percentage (Ratio)
system.mem_ctrls.dram.busUtilRead                8.56                       # Data bus utilization in percentage for reads (Ratio)
system.mem_ctrls.dram.busUtilWrite               7.11                       # Data bus utilization in percentage for writes (Ratio)
system.mem_ctrls.dram.pageHitRate               92.18                       # Row buffer hit rate, read and write combined (Ratio)
system.mem_ctrls.dram.power_state.pwrStateResidencyTicks::UNDEFINED  17801532500                       # Cumulative time (in ticks) in various power states (Tick)
system.mem_ctrls.dram.rank0.actEnergy    106923293.568000                       # Energy for activate commands per rank (pJ) (Joule)
system.mem_ctrls.dram.rank0.preEnergy    142173879.691199                       # Energy for precharge commands per rank (pJ) (Joule)
system.mem_ctrls.dram.rank0.readEnergy   1030816820.275190                       # Energy for read commands per rank (pJ) (Joule)
system.mem_ctrls.dram.rank0.writeEnergy  711611081.663998                       # Energy for write commands per rank (pJ) (Joule)
system.mem_ctrls.dram.rank0.refreshEnergy 3166973255.779212                       # Energy for refresh commands per rank (pJ) (Joule)
system.mem_ctrls.dram.rank0.actBackEnergy 11217009792.643164                       # Energy for active background per rank (pJ) (Joule)
system.mem_ctrls.dram.rank0.preBackEnergy 3002120943.091221                       # Energy for precharge background per rank (pJ) (Joule)
system.mem_ctrls.dram.rank0.actPowerDownEnergy            0                       # Energy for active power-down per rank (pJ) (Joule)
system.mem_ctrls.dram.rank0.prePowerDownEnergy            0                       # Energy for precharge power-down per rank (pJ) (Joule)
system.mem_ctrls.dram.rank0.selfRefreshEnergy            0                       # Energy for self refresh per rank (pJ) (Joule)
system.mem_ctrls.dram.rank0.totalEnergy  19377629066.712112                       # Total energy per rank (pJ) (Joule)
system.mem_ctrls.dram.rank0.averagePower  1088.537128                       # Core power per rank (mW) (Watt)
system.mem_ctrls.dram.rank0.totalIdleTime            0                       # Total Idle time Per DRAM Rank (Tick)
system.mem_ctrls.dram.rank0.pwrStateTime::IDLE   4508423750                       # Time in different power states (Tick)
system.mem_ctrls.dram.rank0.pwrStateTime::REF    800100000                       # Time in different power states (Tick)
system.mem_ctrls.dram.rank0.pwrStateTime::SREF            0                       # Time in different power states (Tick)
system.mem_ctrls.dram.rank0.pwrStateTime::PRE_PDN            0                       # Time in different power states (Tick)
system.mem_ctrls.dram.rank0.pwrStateTime::ACT  12493008750                       # Time in different power states (Tick)
system.mem_ctrls.dram.rank0.pwrStateTime::ACT_PDN            0                       # Time in different power states (Tick)
system.mem_ctrls.dram.rank1.actEnergy    97457881.248000                       # Energy for activate commands per rank (pJ) (Joule)
system.mem_ctrls.dram.rank1.preEnergy    129569003.659201                       # Energy for precharge commands per rank (pJ) (Joule)
system.mem_ctrls.dram.rank1.readEnergy   893303911.449597                       # Energy for read commands per rank (pJ) (Joule)
system.mem_ctrls.dram.rank1.writeEnergy  716970696.959999                       # Energy for write commands per rank (pJ) (Joule)
system.mem_ctrls.dram.rank1.refreshEnergy 3166973255.779212                       # Energy for refresh commands per rank (pJ) (Joule)
system.mem_ctrls.dram.rank1.actBackEnergy 10492380684.273626                       # Energy for active background per rank (pJ) (Joule)
system.mem_ctrls.dram.rank1.preBackEnergy 3558898111.104016                       # Energy for precharge background per rank (pJ) (Joule)
system.mem_ctrls.dram.rank1.actPowerDownEnergy            0                       # Energy for active power-down per rank (pJ) (Joule)
system.mem_ctrls.dram.rank1.prePowerDownEnergy            0                       # Energy for precharge power-down per rank (pJ) (Joule)
system.mem_ctrls.dram.rank1.selfRefreshEnergy            0                       # Energy for self refresh per rank (pJ) (Joule)
system.mem_ctrls.dram.rank1.totalEnergy  19055553544.473751                       # Total energy per rank (pJ) (Joule)
system.mem_ctrls.dram.rank1.averagePower  1070.444556                       # Core power per rank (mW) (Watt)
system.mem_ctrls.dram.rank1.totalIdleTime            0                       # Total Idle time Per DRAM Rank (Tick)
system.mem_ctrls.dram.rank1.pwrStateTime::IDLE   5365946250                       # Time in different power states (Tick)
system.mem_ctrls.dram.rank1.pwrStateTime::REF    800100000                       # Time in different power states (Tick)
system.mem_ctrls.dram.rank1.pwrStateTime::SREF            0                       # Time in different power states (Tick)
system.mem_ctrls.dram.rank1.pwrStateTime::PRE_PDN            0                       # Time in different power states (Tick)
system.mem_ctrls.dram.rank1.pwrStateTime::ACT  11635486250                       # Time in different power states (Tick)
system.mem_ctrls.dram.rank1.pwrStateTime::ACT_PDN            0                       # Time in different power states (Tick)
system.mem_ctrls.power_state.pwrStateResidencyTicks::UNDEFINED  17801532500                       # Cumulative time (in ticks) in various power states (Tick)
system.membus.transDist::ReadResp               78117                       # Transaction distribution (Count)
system.membus.transDist::WritebackDirty        380092                       # Transaction distribution (Count)
system.membus.transDist::CleanEvict             69634                       # Transaction distribution (Count)
system.membus.transDist::ReadExReq             379321                       # Transaction distribution (Count)
system.membus.transDist::ReadExResp            379321                       # Transaction distribution (Count)
system.membus.transDist::ReadCleanReq           78117                       # Transaction distribution (Count)
system.membus.transDist::InvalidateReq              4                       # Transaction distribution (Count)
system.membus.pktCount_system.l2.mem_side_port::system.mem_ctrls.port      1364606                       # Packet count per connected requestor and responder (Count)
system.membus.pktCount_system.l2.mem_side_port::total      1364606                       # Packet count per connected requestor and responder (Count)
system.membus.pktCount::total                 1364606                       # Packet count per connected requestor and responder (Count)
system.membus.pktSize_system.l2.mem_side_port::system.mem_ctrls.port     53601920                       # Cumulative packet size per connected requestor and responder (Byte)
system.membus.pktSize_system.l2.mem_side_port::total     53601920                       # Cumulative packet size per connected requestor and responder (Byte)
system.membus.pktSize::total                 53601920                       # Cumulative packet size per connected requestor and responder (Byte)
system.membus.snoops                                0                       # Total snoops (Count)
system.membus.snoopTraffic                          0                       # Total snoop traffic (Byte)
system.membus.snoopFanout::samples             457442                       # Request fanout histogram (Count)
system.membus.snoopFanout::mean                     0                       # Request fanout histogram (Count)
system.membus.snoopFanout::stdev                    0                       # Request fanout histogram (Count)
system.membus.snoopFanout::underflows               0      0.00%      0.00% # Request fanout histogram (Count)
system.membus.snoopFanout::0                   457442    100.00%    100.00% # Request fanout histogram (Count)
system.membus.snoopFanout::1                        0      0.00%    100.00% # Request fanout histogram (Count)
system.membus.snoopFanout::2                        0      0.00%    100.00% # Request fanout histogram (Count)
system.membus.snoopFanout::overflows                0      0.00%    100.00% # Request fanout histogram (Count)
system.membus.snoopFanout::min_value                0                       # Request fanout histogram (Count)
system.membus.snoopFanout::max_value                0                       # Request fanout histogram (Count)
system.membus.snoopFanout::total               457442                       # Request fanout histogram (Count)
system.membus.badaddr_responder.power_state.pwrStateResidencyTicks::UNDEFINED  17801532500                       # Cumulative time (in ticks) in various power states (Tick)
system.membus.power_state.pwrStateResidencyTicks::UNDEFINED  17801532500                       # Cumulative time (in ticks) in various power states (Tick)
system.membus.reqLayer4.occupancy          2481533000                       # Layer occupancy (ticks) (Tick)
system.membus.reqLayer4.utilization               0.1                       # Layer utilization (Ratio)
system.membus.respLayer2.occupancy         2381696156                       # Layer occupancy (ticks) (Tick)
system.membus.respLayer2.utilization              0.1                       # Layer utilization (Ratio)
system.membus.snoop_filter.totRequests         907168                       # Total number of requests made to the snoop filter. (Count)
system.membus.snoop_filter.hitSingleRequests       457892                       # Number of requests hitting in the snoop filter with a single holder of the requested data. (Count)
system.membus.snoop_filter.hitMultiRequests            0                       # Number of requests hitting in the snoop filter with multiple (>1) holders of the requested data. (Count)
system.membus.snoop_filter.totSnoops                0                       # Total number of snoops made to the snoop filter. (Count)
system.membus.snoop_filter.hitSingleSnoops            0                       # Number of snoops hitting in the snoop filter with a single holder of the requested data. (Count)
system.membus.snoop_filter.hitMultiSnoops            0                       # Number of snoops hitting in the snoop filter with multiple (>1) holders of the requested data. (Count)
system.mmcs.power_state.pwrStateResidencyTicks::UNDEFINED  17801532500                       # Cumulative time (in ticks) in various power states (Tick)
system.tol2bus.transDist::ReadResp             100798                       # Transaction distribution (Count)
system.tol2bus.transDist::WritebackDirty       792183                       # Transaction distribution (Count)
system.tol2bus.transDist::WritebackClean         1740                       # Transaction distribution (Count)
system.tol2bus.transDist::CleanEvict            77815                       # Transaction distribution (Count)
system.tol2bus.transDist::ReadExReq            390318                       # Transaction distribution (Count)
system.tol2bus.transDist::ReadExResp           390318                       # Transaction distribution (Count)
system.tol2bus.transDist::ReadCleanReq           1886                       # Transaction distribution (Count)
system.tol2bus.transDist::ReadSharedReq         98912                       # Transaction distribution (Count)
system.tol2bus.transDist::InvalidateReq            18                       # Transaction distribution (Count)
system.tol2bus.transDist::InvalidateResp           18                       # Transaction distribution (Count)
system.tol2bus.pktCount_system.cpu.icache.mem_side_port::system.l2.cpu_side_port         5512                       # Packet count per connected requestor and responder (Count)
system.tol2bus.pktCount_system.cpu.dcache.mem_side_port::system.l2.cpu_side_port      1274511                       # Packet count per connected requestor and responder (Count)
system.tol2bus.pktCount_system.cpu.itb_walker_cache.mem_side_port::system.l2.cpu_side_port          318                       # Packet count per connected requestor and responder (Count)
system.tol2bus.pktCount_system.cpu.dtb_walker_cache.mem_side_port::system.l2.cpu_side_port       192915                       # Packet count per connected requestor and responder (Count)
system.tol2bus.pktCount::total                1473256                       # Packet count per connected requestor and responder (Count)
system.tol2bus.pktSize_system.cpu.icache.mem_side_port::system.l2.cpu_side_port       232064                       # Cumulative packet size per connected requestor and responder (Byte)
system.tol2bus.pktSize_system.cpu.dcache.mem_side_port::system.l2.cpu_side_port     53562240                       # Cumulative packet size per connected requestor and responder (Byte)
system.tol2bus.pktSize_system.cpu.itb_walker_cache.mem_side_port::system.l2.cpu_side_port         6784                       # Cumulative packet size per connected requestor and responder (Byte)
system.tol2bus.pktSize_system.cpu.dtb_walker_cache.mem_side_port::system.l2.cpu_side_port      4115520                       # Cumulative packet size per connected requestor and responder (Byte)
system.tol2bus.pktSize::total                57916608                       # Cumulative packet size per connected requestor and responder (Byte)
system.tol2bus.snoops                          380750                       # Total snoops (Count)
system.tol2bus.snoopTraffic                  24325888                       # Total snoop traffic (Byte)
system.tol2bus.snoopFanout::samples            871901                       # Request fanout histogram (Count)
system.tol2bus.snoopFanout::mean             0.009385                       # Request fanout histogram (Count)
system.tol2bus.snoopFanout::stdev            0.096422                       # Request fanout histogram (Count)
system.tol2bus.snoopFanout::underflows              0      0.00%      0.00% # Request fanout histogram (Count)
system.tol2bus.snoopFanout::0                  863718     99.06%     99.06% # Request fanout histogram (Count)
system.tol2bus.snoopFanout::1                    8183      0.94%    100.00% # Request fanout histogram (Count)
system.tol2bus.snoopFanout::2                       0      0.00%    100.00% # Request fanout histogram (Count)
system.tol2bus.snoopFanout::3                       0      0.00%    100.00% # Request fanout histogram (Count)
system.tol2bus.snoopFanout::4                       0      0.00%    100.00% # Request fanout histogram (Count)
system.tol2bus.snoopFanout::overflows               0      0.00%    100.00% # Request fanout histogram (Count)
system.tol2bus.snoopFanout::min_value               0                       # Request fanout histogram (Count)
system.tol2bus.snoopFanout::max_value               1                       # Request fanout histogram (Count)
system.tol2bus.snoopFanout::total              871901                       # Request fanout histogram (Count)
system.tol2bus.power_state.pwrStateResidencyTicks::UNDEFINED  17801532500                       # Cumulative time (in ticks) in various power states (Tick)
system.tol2bus.reqLayer0.occupancy          698029448                       # Layer occupancy (ticks) (Tick)
system.tol2bus.reqLayer0.utilization              0.0                       # Layer utilization (Ratio)
system.tol2bus.respLayer0.occupancy           1888495                       # Layer occupancy (ticks) (Tick)
system.tol2bus.respLayer0.utilization             0.0                       # Layer utilization (Ratio)
system.tol2bus.respLayer1.occupancy         424828998                       # Layer occupancy (ticks) (Tick)
system.tol2bus.respLayer1.utilization             0.0                       # Layer utilization (Ratio)
system.tol2bus.respLayer2.occupancy            107497                       # Layer occupancy (ticks) (Tick)
system.tol2bus.respLayer2.utilization             0.0                       # Layer utilization (Ratio)
system.tol2bus.respLayer3.occupancy          64317475                       # Layer occupancy (ticks) (Tick)
system.tol2bus.respLayer3.utilization             0.0                       # Layer utilization (Ratio)
system.tol2bus.snoop_filter.totRequests        982176                       # Total number of requests made to the snoop filter. (Count)
system.tol2bus.snoop_filter.hitSingleRequests       491027                       # Number of requests hitting in the snoop filter with a single holder of the requested data. (Count)
system.tol2bus.snoop_filter.hitMultiRequests         8181                       # Number of requests hitting in the snoop filter with multiple (>1) holders of the requested data. (Count)
system.tol2bus.snoop_filter.totSnoops               0                       # Total number of snoops made to the snoop filter. (Count)
system.tol2bus.snoop_filter.hitSingleSnoops            0                       # Number of snoops hitting in the snoop filter with a single holder of the requested data. (Count)
system.tol2bus.snoop_filter.hitMultiSnoops            0                       # Number of snoops hitting in the snoop filter with multiple (>1) holders of the requested data. (Count)
system.uartlite.power_state.pwrStateResidencyTicks::UNDEFINED  17801532500                       # Cumulative time (in ticks) in various power states (Tick)
system.voltage_domain.voltage                       1                       # Voltage in Volts (Volt)
system.workload.inst.arm                            0                       # number of arm instructions executed (Count)
system.workload.inst.quiesce                        0                       # number of quiesce instructions executed (Count)

---------- End Simulation Statistics   ----------
